ADRB2_case/data/3nya_JTZ.pdb
 OpenBabel03092320483D

 41 41  0  0  1  0  0  0  0  0999 V2000
    0.8143    4.5996    0.9709 C   0  0  0  0  0  0  0  0  0  0  0  0
    0.3671    4.8427   -0.4729 C   0  0  0  0  0  0  0  0  0  0  0  0
    0.8654    3.8160   -1.4066 N   0  0  0  0  0  0  0  0  0  0  0  0
    2.3320    3.8149   -1.5189 C   0  0  0  0  0  0  0  0  0  0  0  0
    2.9144    2.7391   -2.4591 C   0  0  2  0  0  0  0  0  0  0  0  0
    4.3436    2.7635   -2.3616 O   0  0  0  0  0  0  0  0  0  0  0  0
    2.4929    2.8861   -3.9304 C   0  0  0  0  0  0  0  0  0  0  0  0
    2.9499    4.1343   -4.4807 O   0  0  0  0  0  0  0  0  0  0  0  0
    2.5145    4.4281   -5.7548 C   0  0  0  0  0  0  0  0  0  0  0  0
    1.3508    3.8836   -6.3185 C   0  0  0  0  0  0  0  0  0  0  0  0
    0.9155    4.2667   -7.5888 C   0  0  0  0  0  0  0  0  0  0  0  0
    1.6337    5.2047   -8.3142 C   0  0  0  0  0  0  0  0  0  0  0  0
    2.7945    5.7539   -7.7745 C   0  0  0  0  0  0  0  0  0  0  0  0
    3.2602    5.3627   -6.5023 C   0  0  0  0  0  0  0  0  0  0  0  0
    4.5675    5.9550   -6.0214 C   0  0  0  0  0  0  0  0  0  0  0  0
    4.4096    7.2831   -5.3387 C   0  0  0  0  0  0  0  0  0  0  0  0
    4.9129    8.4407   -5.7945 C   0  0  0  0  0  0  0  0  0  0  0  0
   -1.1643    4.8681   -0.5271 C   0  0  0  0  0  0  0  0  0  0  0  0
    1.8942    4.7318    1.0876 H   0  0  0  0  0  0  0  0  0  0  0  0
    0.5533    3.5899    1.3063 H   0  0  0  0  0  0  0  0  0  0  0  0
    0.3351    5.3134    1.6499 H   0  0  0  0  0  0  0  0  0  0  0  0
    0.7257    5.8277   -0.7963 H   0  0  0  0  0  0  0  0  0  0  0  0
    0.4581    4.0046   -2.3260 H   0  0  0  0  0  0  0  0  0  0  0  0
    2.7744    3.6263   -0.5348 H   0  0  0  0  0  0  0  0  0  0  0  0
    2.6845    4.8055   -1.8312 H   0  0  0  0  0  0  0  0  0  0  0  0
    2.5917    1.7516   -2.1088 H   0  0  0  0  0  0  0  0  0  0  0  0
    4.6294    3.6353   -2.6903 H   0  0  0  0  0  0  0  0  0  0  0  0
    1.4035    2.8064   -3.9618 H   0  0  0  0  0  0  0  0  0  0  0  0
    2.9408    2.0751   -4.5159 H   0  0  0  0  0  0  0  0  0  0  0  0
    0.7355    3.1597   -5.7992 H   0  0  0  0  0  0  0  0  0  0  0  0
    0.0156    3.8244   -8.0086 H   0  0  0  0  0  0  0  0  0  0  0  0
    1.2960    5.5087   -9.3012 H   0  0  0  0  0  0  0  0  0  0  0  0
    3.3477    6.4879   -8.3577 H   0  0  0  0  0  0  0  0  0  0  0  0
    5.2420    6.0506   -6.8847 H   0  0  0  0  0  0  0  0  0  0  0  0
    5.0757    5.2577   -5.3461 H   0  0  0  0  0  0  0  0  0  0  0  0
    3.8673    7.2799   -4.3951 H   0  0  0  0  0  0  0  0  0  0  0  0
    5.4659    8.4995   -6.7271 H   0  0  0  0  0  0  0  0  0  0  0  0
    4.7765    9.3629   -5.2377 H   0  0  0  0  0  0  0  0  0  0  0  0
   -1.5952    3.9035   -0.2352 H   0  0  0  0  0  0  0  0  0  0  0  0
   -1.5227    5.1117   -1.5331 H   0  0  0  0  0  0  0  0  0  0  0  0
   -1.5608    5.6298    0.1545 H   0  0  0  0  0  0  0  0  0  0  0  0
  1  2  1  0  0  0  0
  1 19  1  0  0  0  0
  1 20  1  0  0  0  0
  1 21  1  0  0  0  0
  2  3  1  0  0  0  0
  2 18  1  0  0  0  0
  2 22  1  0  0  0  0
  3  4  1  0  0  0  0
  3 23  1  0  0  0  0
  4 24  1  0  0  0  0
  4 25  1  0  0  0  0
  5  7  1  0  0  0  0
  5  6  1  0  0  0  0
  5  4  1  0  0  0  0
  5 26  1  1  0  0  0
  6 27  1  0  0  0  0
  7  8  1  0  0  0  0
  7 28  1  0  0  0  0
  7 29  1  0  0  0  0
  8  9  1  0  0  0  0
  9 10  1  0  0  0  0
  9 14  2  0  0  0  0
 10 11  2  0  0  0  0
 10 30  1  0  0  0  0
 11 12  1  0  0  0  0
 11 31  1  0  0  0  0
 12 13  2  0  0  0  0
 12 32  1  0  0  0  0
 13 14  1  0  0  0  0
 13 33  1  0  0  0  0
 14 15  1  0  0  0  0
 15 16  1  0  0  0  0
 15 34  1  0  0  0  0
 15 35  1  0  0  0  0
 16 17  2  0  0  0  0
 16 36  1  0  0  0  0
 17 37  1  0  0  0  0
 17 38  1  0  0  0  0
 18 39  1  0  0  0  0
 18 40  1  0  0  0  0
 18 41  1  0  0  0  0
M  END
$$$$
