step1_200.xyz.gro
  PyMOL2.5          3D                             0

 21 24  0  0  0  0  0  0  0  0999 V2000
  -12.2501  205.0397  114.2197 C   0  0  0  0  0  0  0  0  0  0  0  0
  -10.9601  205.5997  113.9497 C   0  0  0  0  0  0  0  0  0  0  0  0
  -10.5901  206.2498  112.7597 C   0  0  0  0  0  0  0  0  0  0  0  0
  -11.5501  206.2698  111.7597 C   0  0  0  0  0  0  0  0  0  0  0  0
  -12.9101  205.6698  112.0597 C   0  0  0  0  0  0  0  0  0  0  0  0
  -13.2801  205.0698  113.2497 C   0  0  0  0  0  0  0  0  0  0  0  0
  -14.6201  204.5997  113.2597 C   0  0  0  0  0  0  0  0  0  0  0  0
  -15.5101  204.7698  112.1697 C   0  0  0  0  0  0  0  0  0  0  0  0
  -15.1401  205.4098  110.9697 C   0  0  0  0  0  0  0  0  0  0  0  0
  -13.8401  205.8498  110.8897 C   0  0  0  0  0  0  0  0  0  0  0  0
  -13.0801  206.6498  109.7897 N   0  0  0  0  0  0  0  0  0  0  0  0
  -11.6401  206.8998  110.2297 C   0  0  0  0  0  0  0  0  0  0  0  0
   -9.2701  206.8397  112.6597 C   0  0  0  0  0  0  0  0  0  0  0  0
   -8.2201  206.9397  113.6997 C   0  0  0  0  0  0  0  0  0  0  0  0
   -6.9101  207.5397  113.0097 C   0  0  0  0  0  0  0  0  0  0  0  0
   -7.2401  207.7797  111.5797 C   0  0  0  0  0  0  0  0  0  0  0  0
   -8.6801  207.3897  111.3897 N   0  0  0  0  0  0  0  0  0  0  0  0
  -10.7401  207.3898  109.5797 O   0  0  0  0  0  0  0  0  0  0  0  0
  -15.1101  203.9297  114.3297 F1  0  0  0  0  0  0  0  0  0  0  0  0
  -11.5001  204.2497  116.3597 C   0  0  0  0  0  0  0  0  0  0  0  0
  -12.5901  204.5098  115.4697 O   0  0  0  0  0  0  0  0  0  0  0  0
  1  2  1  0  0  0  0
  1  6  1  0  0  0  0
  1 21  1  0  0  0  0
  2  3  1  0  0  0  0
  3  4  1  0  0  0  0
  3 13  1  0  0  0  0
  4  5  1  0  0  0  0
  4 12  1  0  0  0  0
  5  6  1  0  0  0  0
  5 10  1  0  0  0  0
  6  7  1  0  0  0  0
  7  8  1  0  0  0  0
  7 19  1  0  0  0  0
  8  9  1  0  0  0  0
  9 10  1  0  0  0  0
 10 11  1  0  0  0  0
 11 12  1  0  0  0  0
 12 18  1  0  0  0  0
 13 14  1  0  0  0  0
 13 17  1  0  0  0  0
 14 15  1  0  0  0  0
 15 16  1  0  0  0  0
 16 17  1  0  0  0  0
 20 21  1  0  0  0  0
M  END
$$$$
