step2_200_2000_5.0_27766.xyz.gro
  PyMOL2.5          3D                             0

 21 24  0  0  0  0  0  0  0  0999 V2000
  -11.2330  206.0338  114.9514 C   0  0  0  0  0  0  0  0  0  0  0  0
   -9.9131  206.4937  114.7111 C   0  0  0  0  0  0  0  0  0  0  0  0
   -9.4233  206.8537  113.4310 C   0  0  0  0  0  0  0  0  0  0  0  0
  -10.3136  206.7138  112.3712 C   0  0  0  0  0  0  0  0  0  0  0  0
  -11.7135  206.1939  112.6715 C   0  0  0  0  0  0  0  0  0  0  0  0
  -12.1833  205.8539  113.9216 C   0  0  0  0  0  0  0  0  0  0  0  0
  -13.5233  205.3940  113.9319 C   0  0  0  0  0  0  0  0  0  0  0  0
  -14.3236  205.3241  112.7620 C   0  0  0  0  0  0  0  0  0  0  0  0
  -13.8438  205.6741  111.4819 C   0  0  0  0  0  0  0  0  0  0  0  0
  -12.5238  206.1040  111.4016 C   0  0  0  0  0  0  0  0  0  0  0  0
  -11.6240  206.5539  110.2015 N   0  0  0  0  0  0  0  0  0  0  0  0
  -10.2439  206.9538  110.7212 C   0  0  0  0  0  0  0  0  0  0  0  0
   -8.0433  207.2936  113.2807 C   0  0  0  0  0  0  0  0  0  0  0  0
   -6.9431  207.3135  114.2905 C   0  0  0  0  0  0  0  0  0  0  0  0
   -5.6432  207.9634  113.5802 C   0  0  0  0  0  0  0  0  0  0  0  0
   -6.0235  208.2935  112.1803 C   0  0  0  0  0  0  0  0  0  0  0  0
   -7.4635  207.8936  112.0106 N   0  0  0  0  0  0  0  0  0  0  0  0
   -9.2740  207.3537  110.0810 O   0  0  0  0  0  0  0  0  0  0  0  0
  -14.0731  204.9640  115.0820 F1  0  0  0  0  0  0  0  0  0  0  0  0
  -12.2326  206.8438  116.8116 C   0  0  0  0  0  0  0  0  0  0  0  0
  -11.5428  205.7138  116.2614 O   0  0  0  0  0  0  0  0  0  0  0  0
  1  2  1  0  0  0  0
  1  6  1  0  0  0  0
  1 21  1  0  0  0  0
  2  3  1  0  0  0  0
  3  4  1  0  0  0  0
  3 13  1  0  0  0  0
  4  5  1  0  0  0  0
  4 12  1  0  0  0  0
  5  6  1  0  0  0  0
  5 10  1  0  0  0  0
  6  7  1  0  0  0  0
  7  8  1  0  0  0  0
  7 19  1  0  0  0  0
  8  9  1  0  0  0  0
  9 10  1  0  0  0  0
 10 11  1  0  0  0  0
 11 12  1  0  0  0  0
 12 18  1  0  0  0  0
 13 14  1  0  0  0  0
 13 17  1  0  0  0  0
 14 15  1  0  0  0  0
 15 16  1  0  0  0  0
 16 17  1  0  0  0  0
 20 21  1  0  0  0  0
M  END
$$$$
