step2_200_2000_5.0_6798.xyz.gro
  PyMOL2.5          3D                             0

 21 24  0  0  0  0  0  0  0  0999 V2000
  -10.9740  206.2718  114.8081 C   0  0  0  0  0  0  0  0  0  0  0  0
   -9.6241  206.6420  114.5281 C   0  0  0  0  0  0  0  0  0  0  0  0
   -9.1643  207.0025  113.2281 C   0  0  0  0  0  0  0  0  0  0  0  0
  -10.1044  206.9527  112.2082 C   0  0  0  0  0  0  0  0  0  0  0  0
  -11.5243  206.5324  112.5482 C   0  0  0  0  0  0  0  0  0  0  0  0
  -11.9641  206.2020  113.8082 C   0  0  0  0  0  0  0  0  0  0  0  0
  -13.3341  205.8517  113.8582 C   0  0  0  0  0  0  0  0  0  0  0  0
  -14.1742  205.7920  112.7083 C   0  0  0  0  0  0  0  0  0  0  0  0
  -13.7044  206.0925  111.4083 C   0  0  0  0  0  0  0  0  0  0  0  0
  -12.3845  206.4627  111.2983 C   0  0  0  0  0  0  0  0  0  0  0  0
  -11.4746  206.8333  110.0583 N   0  0  0  0  0  0  0  0  0  0  0  0
  -10.0546  207.1433  110.5483 C   0  0  0  0  0  0  0  0  0  0  0  0
   -7.7844  207.4228  113.0481 C   0  0  0  0  0  0  0  0  0  0  0  0
   -6.6543  207.4426  114.0180 C   0  0  0  0  0  0  0  0  0  0  0  0
   -5.3845  208.1230  113.2781 C   0  0  0  0  0  0  0  0  0  0  0  0
   -5.8147  208.4734  111.8982 C   0  0  0  0  0  0  0  0  0  0  0  0
   -7.2546  208.0533  111.7783 N   0  0  0  0  0  0  0  0  0  0  0  0
   -9.0647  207.3936  109.8882 O   0  0  0  0  0  0  0  0  0  0  0  0
  -13.9039  205.5613  115.0382 F1  0  0  0  0  0  0  0  0  0  0  0  0
  -10.7538  206.7210  117.0982 C   0  0  0  0  0  0  0  0  0  0  0  0
  -11.3438  205.8713  116.0980 O   0  0  0  0  0  0  0  0  0  0  0  0
  1  2  1  0  0  0  0
  1  6  1  0  0  0  0
  1 21  1  0  0  0  0
  2  3  1  0  0  0  0
  3  4  1  0  0  0  0
  3 13  1  0  0  0  0
  4  5  1  0  0  0  0
  4 12  1  0  0  0  0
  5  6  1  0  0  0  0
  5 10  1  0  0  0  0
  6  7  1  0  0  0  0
  7  8  1  0  0  0  0
  7 19  1  0  0  0  0
  8  9  1  0  0  0  0
  9 10  1  0  0  0  0
 10 11  1  0  0  0  0
 11 12  1  0  0  0  0
 12 18  1  0  0  0  0
 13 14  1  0  0  0  0
 13 17  1  0  0  0  0
 14 15  1  0  0  0  0
 15 16  1  0  0  0  0
 16 17  1  0  0  0  0
 20 21  1  0  0  0  0
M  END
$$$$
