step2_200_2000_5.0_40251.xyz.gro
  PyMOL2.5          3D                             0

 21 24  0  0  0  0  0  0  0  0999 V2000
  -10.0826  207.1823  115.6744 C   0  0  0  0  0  0  0  0  0  0  0  0
   -8.7627  207.6123  115.3141 C   0  0  0  0  0  0  0  0  0  0  0  0
   -8.3429  207.8424  113.9741 C   0  0  0  0  0  0  0  0  0  0  0  0
   -9.3231  207.6925  112.9943 C   0  0  0  0  0  0  0  0  0  0  0  0
  -10.7130  207.2426  113.4145 C   0  0  0  0  0  0  0  0  0  0  0  0
  -11.1028  206.9924  114.7146 C   0  0  0  0  0  0  0  0  0  0  0  0
  -12.4428  206.5625  114.8348 C   0  0  0  0  0  0  0  0  0  0  0  0
  -13.3030  206.3726  113.7149 C   0  0  0  0  0  0  0  0  0  0  0  0
  -12.8833  206.5927  112.3849 C   0  0  0  0  0  0  0  0  0  0  0  0
  -11.5933  207.0327  112.1947 C   0  0  0  0  0  0  0  0  0  0  0  0
  -10.7435  207.3528  110.9145 N   0  0  0  0  0  0  0  0  0  0  0  0
   -9.3234  207.7727  111.3243 C   0  0  0  0  0  0  0  0  0  0  0  0
   -6.9330  208.0123  113.6738 C   0  0  0  0  0  0  0  0  0  0  0  0
   -5.7328  207.8422  114.5536 C   0  0  0  0  0  0  0  0  0  0  0  0
   -4.4230  208.0422  113.6334 C   0  0  0  0  0  0  0  0  0  0  0  0
   -4.8932  208.3724  112.2635 C   0  0  0  0  0  0  0  0  0  0  0  0
   -6.4032  208.3324  112.3038 N   0  0  0  0  0  0  0  0  0  0  0  0
   -8.3835  208.0827  110.6141 O   0  0  0  0  0  0  0  0  0  0  0  0
  -12.9626  206.2824  116.0448 F1  0  0  0  0  0  0  0  0  0  0  0  0
   -9.3222  206.5421  117.8142 C   0  0  0  0  0  0  0  0  0  0  0  0
  -10.4324  206.9522  117.0144 O   0  0  0  0  0  0  0  0  0  0  0  0
  1  2  1  0  0  0  0
  1  6  1  0  0  0  0
  1 21  1  0  0  0  0
  2  3  1  0  0  0  0
  3  4  1  0  0  0  0
  3 13  1  0  0  0  0
  4  5  1  0  0  0  0
  4 12  1  0  0  0  0
  5  6  1  0  0  0  0
  5 10  1  0  0  0  0
  6  7  1  0  0  0  0
  7  8  1  0  0  0  0
  7 19  1  0  0  0  0
  8  9  1  0  0  0  0
  9 10  1  0  0  0  0
 10 11  1  0  0  0  0
 11 12  1  0  0  0  0
 12 18  1  0  0  0  0
 13 14  1  0  0  0  0
 13 17  1  0  0  0  0
 14 15  1  0  0  0  0
 15 16  1  0  0  0  0
 16 17  1  0  0  0  0
 20 21  1  0  0  0  0
M  END
$$$$
