step2_200_2000_5.0_4094.xyz.gro
  PyMOL2.5          3D                             0

 21 24  0  0  0  0  0  0  0  0999 V2000
  -10.0962  207.3451  114.4907 C   0  0  0  0  0  0  0  0  0  0  0  0
   -8.8362  207.7446  113.9504 C   0  0  0  0  0  0  0  0  0  0  0  0
   -8.6065  207.9647  112.5704 C   0  0  0  0  0  0  0  0  0  0  0  0
   -9.7168  207.8253  111.7307 C   0  0  0  0  0  0  0  0  0  0  0  0
  -11.0368  207.3958  112.3510 C   0  0  0  0  0  0  0  0  0  0  0  0
  -11.2465  207.1557  113.6811 C   0  0  0  0  0  0  0  0  0  0  0  0
  -12.5466  206.7062  114.0014 C   0  0  0  0  0  0  0  0  0  0  0  0
  -13.5470  206.4868  113.0217 C   0  0  0  0  0  0  0  0  0  0  0  0
  -13.3273  206.7068  111.6417 C   0  0  0  0  0  0  0  0  0  0  0  0
  -12.0873  207.1664  111.2713 C   0  0  0  0  0  0  0  0  0  0  0  0
  -11.4176  207.4563  109.8812 N   0  0  0  0  0  0  0  0  0  0  0  0
   -9.9573  207.8756  110.0708 C   0  0  0  0  0  0  0  0  0  0  0  0
   -7.2666  208.2042  112.0700 C   0  0  0  0  0  0  0  0  0  0  0  0
   -5.9564  208.1836  112.7896 C   0  0  0  0  0  0  0  0  0  0  0  0
   -4.7866  208.3832  111.6992 C   0  0  0  0  0  0  0  0  0  0  0  0
   -5.4470  208.5237  110.3695 C   0  0  0  0  0  0  0  0  0  0  0  0
   -6.9269  208.4342  110.6099 N   0  0  0  0  0  0  0  0  0  0  0  0
   -9.1375  208.1454  109.2205 O   0  0  0  0  0  0  0  0  0  0  0  0
  -12.8763  206.4162  115.2715 F1  0  0  0  0  0  0  0  0  0  0  0  0
   -9.2762  206.1145  116.2503 C   0  0  0  0  0  0  0  0  0  0  0  0
  -10.2059  207.1350  115.8607 O   0  0  0  0  0  0  0  0  0  0  0  0
  1  2  1  0  0  0  0
  1  6  1  0  0  0  0
  1 21  1  0  0  0  0
  2  3  1  0  0  0  0
  3  4  1  0  0  0  0
  3 13  1  0  0  0  0
  4  5  1  0  0  0  0
  4 12  1  0  0  0  0
  5  6  1  0  0  0  0
  5 10  1  0  0  0  0
  6  7  1  0  0  0  0
  7  8  1  0  0  0  0
  7 19  1  0  0  0  0
  8  9  1  0  0  0  0
  9 10  1  0  0  0  0
 10 11  1  0  0  0  0
 11 12  1  0  0  0  0
 12 18  1  0  0  0  0
 13 14  1  0  0  0  0
 13 17  1  0  0  0  0
 14 15  1  0  0  0  0
 15 16  1  0  0  0  0
 16 17  1  0  0  0  0
 20 21  1  0  0  0  0
M  END
$$$$
