step2_200_2000_5.0_86498.xyz.gro
  PyMOL2.5          3D                             0

 21 24  0  0  0  0  0  0  0  0999 V2000
  -12.0137  205.5017  115.5039 C   0  0  0  0  0  0  0  0  0  0  0  0
  -10.8037  206.2316  115.4240 C   0  0  0  0  0  0  0  0  0  0  0  0
  -10.3337  206.8717  114.2441 C   0  0  0  0  0  0  0  0  0  0  0  0
  -11.1737  206.7820  113.1141 C   0  0  0  0  0  0  0  0  0  0  0  0
  -12.4438  205.9621  113.2540 C   0  0  0  0  0  0  0  0  0  0  0  0
  -12.8538  205.3020  114.3839 C   0  0  0  0  0  0  0  0  0  0  0  0
  -14.0339  204.5221  114.2239 C   0  0  0  0  0  0  0  0  0  0  0  0
  -14.7439  204.4723  113.0039 C   0  0  0  0  0  0  0  0  0  0  0  0
  -14.3339  205.1425  111.8340 C   0  0  0  0  0  0  0  0  0  0  0  0
  -13.1638  205.8823  111.9240 C   0  0  0  0  0  0  0  0  0  0  0  0
  -12.3438  206.6824  110.8641 N   0  0  0  0  0  0  0  0  0  0  0  0
  -11.0937  207.2822  111.5142 C   0  0  0  0  0  0  0  0  0  0  0  0
   -9.0136  207.4616  114.2541 C   0  0  0  0  0  0  0  0  0  0  0  0
   -8.3336  208.4217  113.3442 C   0  0  0  0  0  0  0  0  0  0  0  0
   -6.7735  208.4715  113.7542 C   0  0  0  0  0  0  0  0  0  0  0  0
   -6.5936  207.5513  114.9140 C   0  0  0  0  0  0  0  0  0  0  0  0
   -7.9436  206.9514  115.1940 N   0  0  0  0  0  0  0  0  0  0  0  0
  -10.2337  207.9422  110.9542 O   0  0  0  0  0  0  0  0  0  0  0  0
  -14.4639  203.7420  115.2238 F1  0  0  0  0  0  0  0  0  0  0  0  0
  -13.3336  205.7816  117.3240 C   0  0  0  0  0  0  0  0  0  0  0  0
  -12.3037  204.9616  116.7439 O   0  0  0  0  0  0  0  0  0  0  0  0
  1  2  1  0  0  0  0
  1  6  1  0  0  0  0
  1 21  1  0  0  0  0
  2  3  1  0  0  0  0
  3  4  1  0  0  0  0
  3 13  1  0  0  0  0
  4  5  1  0  0  0  0
  4 12  1  0  0  0  0
  5  6  1  0  0  0  0
  5 10  1  0  0  0  0
  6  7  1  0  0  0  0
  7  8  1  0  0  0  0
  7 19  1  0  0  0  0
  8  9  1  0  0  0  0
  9 10  1  0  0  0  0
 10 11  1  0  0  0  0
 11 12  1  0  0  0  0
 12 18  1  0  0  0  0
 13 14  1  0  0  0  0
 13 17  1  0  0  0  0
 14 15  1  0  0  0  0
 15 16  1  0  0  0  0
 16 17  1  0  0  0  0
 20 21  1  0  0  0  0
M  END
$$$$
