step2_200_2000_5.0_47873.xyz.gro
  PyMOL2.5          3D                             0

 21 24  0  0  0  0  0  0  0  0999 V2000
   -5.5147  207.6439  115.2217 C   0  0  0  0  0  0  0  0  0  0  0  0
   -4.3547  207.5141  114.3718 C   0  0  0  0  0  0  0  0  0  0  0  0
   -4.4145  207.4641  112.9718 C   0  0  0  0  0  0  0  0  0  0  0  0
   -5.6645  207.6140  112.3817 C   0  0  0  0  0  0  0  0  0  0  0  0
   -6.8746  207.7638  113.3017 C   0  0  0  0  0  0  0  0  0  0  0  0
   -6.8147  207.7737  114.6617 C   0  0  0  0  0  0  0  0  0  0  0  0
   -8.0948  207.8635  115.3016 C   0  0  0  0  0  0  0  0  0  0  0  0
   -9.3047  207.9134  114.5515 C   0  0  0  0  0  0  0  0  0  0  0  0
   -9.3646  207.8935  113.1515 C   0  0  0  0  0  0  0  0  0  0  0  0
   -8.1446  207.8237  112.4816 C   0  0  0  0  0  0  0  0  0  0  0  0
   -7.7644  207.7039  110.9616 N   0  0  0  0  0  0  0  0  0  0  0  0
   -6.2544  207.5741  110.8217 C   0  0  0  0  0  0  0  0  0  0  0  0
   -3.2045  207.2843  112.1319 C   0  0  0  0  0  0  0  0  0  0  0  0
   -1.8244  206.8945  112.5320 C   0  0  0  0  0  0  0  0  0  0  0  0
   -0.9144  206.9447  111.2020 C   0  0  0  0  0  0  0  0  0  0  0  0
   -1.7943  207.3347  110.0720 C   0  0  0  0  0  0  0  0  0  0  0  0
   -3.1544  207.5345  110.6519 N   0  0  0  0  0  0  0  0  0  0  0  0
   -5.5743  207.3942  109.8117 O   0  0  0  0  0  0  0  0  0  0  0  0
   -8.1749  207.8834  116.6316 F1  0  0  0  0  0  0  0  0  0  0  0  0
   -4.4148  206.7339  117.0518 C   0  0  0  0  0  0  0  0  0  0  0  0
   -5.3649  207.6938  116.5818 O   0  0  0  0  0  0  0  0  0  0  0  0
  1  2  1  0  0  0  0
  1  6  1  0  0  0  0
  1 21  1  0  0  0  0
  2  3  1  0  0  0  0
  3  4  1  0  0  0  0
  3 13  1  0  0  0  0
  4  5  1  0  0  0  0
  4 12  1  0  0  0  0
  5  6  1  0  0  0  0
  5 10  1  0  0  0  0
  6  7  1  0  0  0  0
  7  8  1  0  0  0  0
  7 19  1  0  0  0  0
  8  9  1  0  0  0  0
  9 10  1  0  0  0  0
 10 11  1  0  0  0  0
 11 12  1  0  0  0  0
 12 18  1  0  0  0  0
 13 14  1  0  0  0  0
 13 17  1  0  0  0  0
 14 15  1  0  0  0  0
 15 16  1  0  0  0  0
 16 17  1  0  0  0  0
 20 21  1  0  0  0  0
M  END
$$$$
