step2_200_2000_5.0_28005.xyz.gro
  PyMOL2.5          3D                             0

 21 24  0  0  0  0  0  0  0  0999 V2000
  -13.5024  206.5015  115.0218 C   0  0  0  0  0  0  0  0  0  0  0  0
  -12.2122  207.1011  115.1616 C   0  0  0  0  0  0  0  0  0  0  0  0
  -11.3624  207.4111  114.0614 C   0  0  0  0  0  0  0  0  0  0  0  0
  -11.8628  207.0915  112.8015 C   0  0  0  0  0  0  0  0  0  0  0  0
  -13.2230  206.4419  112.7017 C   0  0  0  0  0  0  0  0  0  0  0  0
  -14.0329  206.1219  113.7618 C   0  0  0  0  0  0  0  0  0  0  0  0
  -15.2531  205.5023  113.4020 C   0  0  0  0  0  0  0  0  0  0  0  0
  -15.6235  205.2527  112.0520 C   0  0  0  0  0  0  0  0  0  0  0  0
  -14.7937  205.5827  110.9519 C   0  0  0  0  0  0  0  0  0  0  0  0
  -13.5835  206.1623  111.2517 C   0  0  0  0  0  0  0  0  0  0  0  0
  -12.3835  206.6522  110.3515 N   0  0  0  0  0  0  0  0  0  0  0  0
  -11.2731  207.2516  111.2214 C   0  0  0  0  0  0  0  0  0  0  0  0
  -10.0622  207.9906  114.2913 C   0  0  0  0  0  0  0  0  0  0  0  0
   -9.3518  208.3702  115.5412 C   0  0  0  0  0  0  0  0  0  0  0  0
   -7.9217  208.9999  115.1310 C   0  0  0  0  0  0  0  0  0  0  0  0
   -7.8421  208.9702  113.6409 C   0  0  0  0  0  0  0  0  0  0  0  0
   -9.1324  208.3706  113.1511 N   0  0  0  0  0  0  0  0  0  0  0  0
  -10.2231  207.7314  110.9012 O   0  0  0  0  0  0  0  0  0  0  0  0
  -16.1230  205.0924  114.3421 F1  0  0  0  0  0  0  0  0  0  0  0  0
  -14.1817  207.2813  117.1221 C   0  0  0  0  0  0  0  0  0  0  0  0
  -14.2923  206.2315  116.1519 O   0  0  0  0  0  0  0  0  0  0  0  0
  1  2  1  0  0  0  0
  1  6  1  0  0  0  0
  1 21  1  0  0  0  0
  2  3  1  0  0  0  0
  3  4  1  0  0  0  0
  3 13  1  0  0  0  0
  4  5  1  0  0  0  0
  4 12  1  0  0  0  0
  5  6  1  0  0  0  0
  5 10  1  0  0  0  0
  6  7  1  0  0  0  0
  7  8  1  0  0  0  0
  7 19  1  0  0  0  0
  8  9  1  0  0  0  0
  9 10  1  0  0  0  0
 10 11  1  0  0  0  0
 11 12  1  0  0  0  0
 12 18  1  0  0  0  0
 13 14  1  0  0  0  0
 13 17  1  0  0  0  0
 14 15  1  0  0  0  0
 15 16  1  0  0  0  0
 16 17  1  0  0  0  0
 20 21  1  0  0  0  0
M  END
$$$$
