step2_200_2000_5.0_52593.xyz.gro
  PyMOL2.5          3D                             0

 21 24  0  0  0  0  0  0  0  0999 V2000
  -11.5663  206.4574  118.2839 C   0  0  0  0  0  0  0  0  0  0  0  0
  -10.2262  206.9472  118.5038 C   0  0  0  0  0  0  0  0  0  0  0  0
   -9.4962  207.6970  117.5436 C   0  0  0  0  0  0  0  0  0  0  0  0
  -10.1562  207.9969  116.3536 C   0  0  0  0  0  0  0  0  0  0  0  0
  -11.5563  207.4471  116.1438 C   0  0  0  0  0  0  0  0  0  0  0  0
  -12.2464  206.6973  117.0639 C   0  0  0  0  0  0  0  0  0  0  0  0
  -13.5265  206.2675  116.5941 C   0  0  0  0  0  0  0  0  0  0  0  0
  -14.0165  206.5774  115.3041 C   0  0  0  0  0  0  0  0  0  0  0  0
  -13.2964  207.3372  114.3539 C   0  0  0  0  0  0  0  0  0  0  0  0
  -12.0463  207.7870  114.7538 C   0  0  0  0  0  0  0  0  0  0  0  0
  -10.9263  208.5967  114.0136 N   0  0  0  0  0  0  0  0  0  0  0  0
   -9.7262  208.7866  114.9435 C   0  0  0  0  0  0  0  0  0  0  0  0
   -8.0861  207.9867  117.7535 C   0  0  0  0  0  0  0  0  0  0  0  0
   -7.1061  207.3667  118.6935 C   0  0  0  0  0  0  0  0  0  0  0  0
   -5.6760  208.0564  118.4233 C   0  0  0  0  0  0  0  0  0  0  0  0
   -5.8560  209.0563  117.3432 C   0  0  0  0  0  0  0  0  0  0  0  0
   -7.3060  209.0065  116.9533 N   0  0  0  0  0  0  0  0  0  0  0  0
   -8.6761  209.3664  114.7333 O   0  0  0  0  0  0  0  0  0  0  0  0
  -14.3065  205.4977  117.3742 F1  0  0  0  0  0  0  0  0  0  0  0  0
  -11.5063  205.3876  120.4141 C   0  0  0  0  0  0  0  0  0  0  0  0
  -12.2464  205.6876  119.2241 O   0  0  0  0  0  0  0  0  0  0  0  0
  1  2  1  0  0  0  0
  1  6  1  0  0  0  0
  1 21  1  0  0  0  0
  2  3  1  0  0  0  0
  3  4  1  0  0  0  0
  3 13  1  0  0  0  0
  4  5  1  0  0  0  0
  4 12  1  0  0  0  0
  5  6  1  0  0  0  0
  5 10  1  0  0  0  0
  6  7  1  0  0  0  0
  7  8  1  0  0  0  0
  7 19  1  0  0  0  0
  8  9  1  0  0  0  0
  9 10  1  0  0  0  0
 10 11  1  0  0  0  0
 11 12  1  0  0  0  0
 12 18  1  0  0  0  0
 13 14  1  0  0  0  0
 13 17  1  0  0  0  0
 14 15  1  0  0  0  0
 15 16  1  0  0  0  0
 16 17  1  0  0  0  0
 20 21  1  0  0  0  0
M  END
$$$$
