step2_200_2000_5.0_23287.xyz.gro
  PyMOL2.5          3D                             0

 21 24  0  0  0  0  0  0  0  0999 V2000
   -8.1360  206.8584  116.4603 C   0  0  0  0  0  0  0  0  0  0  0  0
   -6.8859  207.3979  116.0401 C   0  0  0  0  0  0  0  0  0  0  0  0
   -6.6759  207.9879  114.7701 C   0  0  0  0  0  0  0  0  0  0  0  0
   -7.7960  208.0584  113.9303 C   0  0  0  0  0  0  0  0  0  0  0  0
   -9.0862  207.4189  114.4005 C   0  0  0  0  0  0  0  0  0  0  0  0
   -9.2762  206.8189  115.6205 C   0  0  0  0  0  0  0  0  0  0  0  0
  -10.5664  206.2594  115.8107 C   0  0  0  0  0  0  0  0  0  0  0  0
  -11.5865  206.3299  114.8209 C   0  0  0  0  0  0  0  0  0  0  0  0
  -11.3865  206.9399  113.5609 C   0  0  0  0  0  0  0  0  0  0  0  0
  -10.1363  207.4894  113.3107 C   0  0  0  0  0  0  0  0  0  0  0  0
   -9.5163  208.2192  112.0706 N   0  0  0  0  0  0  0  0  0  0  0  0
   -8.0760  208.6286  112.3804 C   0  0  0  0  0  0  0  0  0  0  0  0
   -5.3458  208.4173  114.3499 C   0  0  0  0  0  0  0  0  0  0  0  0
   -4.0257  208.2467  115.0296 C   0  0  0  0  0  0  0  0  0  0  0  0
   -2.9056  208.9563  114.1094 C   0  0  0  0  0  0  0  0  0  0  0  0
   -3.6056  209.5267  112.9196 C   0  0  0  0  0  0  0  0  0  0  0  0
   -5.0657  209.1873  113.0798 N   0  0  0  0  0  0  0  0  0  0  0  0
   -7.3159  209.2983  111.7003 O   0  0  0  0  0  0  0  0  0  0  0  0
  -10.8464  205.6095  116.9507 F1  0  0  0  0  0  0  0  0  0  0  0  0
   -8.6154  207.4785  118.5604 C   0  0  0  0  0  0  0  0  0  0  0  0
   -8.1860  206.3783  117.7503 O   0  0  0  0  0  0  0  0  0  0  0  0
  1  2  1  0  0  0  0
  1  6  1  0  0  0  0
  1 21  1  0  0  0  0
  2  3  1  0  0  0  0
  3  4  1  0  0  0  0
  3 13  1  0  0  0  0
  4  5  1  0  0  0  0
  4 12  1  0  0  0  0
  5  6  1  0  0  0  0
  5 10  1  0  0  0  0
  6  7  1  0  0  0  0
  7  8  1  0  0  0  0
  7 19  1  0  0  0  0
  8  9  1  0  0  0  0
  9 10  1  0  0  0  0
 10 11  1  0  0  0  0
 11 12  1  0  0  0  0
 12 18  1  0  0  0  0
 13 14  1  0  0  0  0
 13 17  1  0  0  0  0
 14 15  1  0  0  0  0
 15 16  1  0  0  0  0
 16 17  1  0  0  0  0
 20 21  1  0  0  0  0
M  END
$$$$
