ZINC00067591
 OpenBabel12232117173D

 26 27  0  0  0  0  0  0  0  0999 V2000
   -0.4340   -2.1640    9.3310 C   0  0  0  0  0  0  0  0  0  0  0  0
    0.7540   -2.2620    8.4090 C   0  0  0  0  0  0  0  0  0  0  0  0
    2.0140   -2.4870    8.9260 C   0  0  0  0  0  0  0  0  0  0  0  0
    3.1040   -2.5770    8.0810 C   0  0  0  0  0  0  0  0  0  0  0  0
    2.9370   -2.4420    6.7140 C   0  0  0  0  0  0  0  0  0  0  0  0
    1.6780   -2.2220    6.1900 C   0  0  0  0  0  0  0  0  0  0  0  0
    0.5820   -2.1260    7.0370 C   0  0  0  0  0  0  0  0  0  0  0  0
   -0.6940   -1.8970    6.5100 N   0  0  0  0  0  0  0  0  0  0  0  0
   -0.8640   -0.9900    5.5280 C   0  0  0  0  0  0  0  0  0  0  0  0
    0.4930   -0.2010    4.8460 S   0  0  0  0  0  0  0  0  0  0  0  0
   -2.1040   -0.7030    5.0840 N   0  0  0  0  0  0  0  0  0  0  0  0
   -2.2760    0.1700    4.0040 C   0  0  0  0  0  0  0  0  0  0  0  0
   -1.5890    1.3760    3.9700 C   0  0  0  0  0  0  0  0  0  0  0  0
   -1.7620    2.2390    2.8980 C   0  0  0  0  0  0  0  0  0  0  0  0
   -2.6270    1.8970    1.8650 C   0  0  0  0  0  0  0  0  0  0  0  0
   -3.3040    0.6940    1.9000 C   0  0  0  0  0  0  0  0  0  0  0  0
   -3.1340   -0.1680    2.9660 C   0  0  0  0  0  0  0  0  0  0  0  0
   -3.8790   -1.4780    3.0020 C   0  0  0  0  0  0  0  0  0  0  0  0
   -1.0730    3.4530    2.8600 N   0  0  0  0  0  0  0  0  0  0  0  0
   -0.3240    3.9370    1.4650 S   0  0  0  0  0  0  0  0  0  0  0  0
    0.3130    5.1620    1.8010 O   0  0  0  0  0  0  0  0  0  0  0  0
   -1.3420    3.8970    0.4740 O   0  0  0  0  0  0  0  0  0  0  0  0
    0.9180    2.6560    1.1350 C   0  0  0  0  0  0  0  0  0  0  0  0
   -1.4550   -2.3920    6.8510 H   0  0  0  0  0  0  0  0  0  0  0  0
   -2.8770   -1.1020    5.5120 H   0  0  0  0  0  0  0  0  0  0  0  0
   -1.0330    4.0130    3.6510 H   0  0  0  0  0  0  0  0  0  0  0  0
  1  2  1  0  0  0  0
  2  3  2  0  0  0  0
  2  7  1  0  0  0  0
  3  4  1  0  0  0  0
  4  5  2  0  0  0  0
  5  6  1  0  0  0  0
  6  7  2  0  0  0  0
  7  8  1  0  0  0  0
  8  9  1  0  0  0  0
  8 24  1  0  0  0  0
  9 10  2  0  0  0  0
  9 11  1  0  0  0  0
 11 12  1  0  0  0  0
 11 25  1  0  0  0  0
 12 13  2  0  0  0  0
 12 17  1  0  0  0  0
 13 14  1  0  0  0  0
 14 15  2  0  0  0  0
 14 19  1  0  0  0  0
 15 16  1  0  0  0  0
 16 17  2  0  0  0  0
 17 18  1  0  0  0  0
 19 20  1  0  0  0  0
 19 26  1  0  0  0  0
 20 21  2  0  0  0  0
 20 22  2  0  0  0  0
 20 23  1  0  0  0  0
M  END
$$$$
