ZINC03832017
 OpenBabel12222117043D

 43 46  0  0  0  0  0  0  0  0999 V2000
   -1.6970    1.5710   -3.3860 C   0  0  0  0  0  0  0  0  0  0  0  0
   -0.8390    1.0610   -2.2260 C   0  0  0  0  0  0  0  0  0  0  0  0
   -1.3900    1.6050   -0.9060 C   0  0  0  0  0  0  0  0  0  0  0  0
   -0.5320    1.0950    0.2530 C   0  0  0  0  0  0  0  0  0  0  0  0
   -0.9900    1.7050    1.5040 N   0  0  0  0  0  0  0  0  0  0  0  0
   -0.5850    2.9030    2.0130 C   0  0  0  0  0  0  0  0  0  0  0  0
   -1.1970    3.1380    3.1380 N   0  0  0  0  0  0  0  0  0  0  0  0
   -2.0230    2.1040    3.4260 C   0  0  0  0  0  0  0  0  0  0  0  0
   -1.9010    1.1720    2.3810 C   0  0  0  0  0  0  0  0  0  0  0  0
   -2.6170    0.0540    2.4260 N   0  0  0  0  0  0  0  0  0  0  0  0
   -3.4320   -0.1810    3.4340 C   0  0  0  0  0  0  0  0  0  0  0  0
   -3.5800    0.6640    4.4370 N   0  0  0  0  0  0  0  0  0  0  0  0
   -2.9050    1.8080    4.4790 C   0  0  0  0  0  0  0  0  0  0  0  0
   -3.0680    2.6880    5.5350 N   0  0  0  0  0  0  0  0  0  0  0  0
    0.4200    3.8210    1.3670 C   0  0  0  0  0  0  0  0  0  0  0  0
    1.7890    3.5450    1.9330 C   0  0  0  0  0  0  0  0  0  0  0  0
    2.6470    2.6840    1.2740 C   0  0  0  0  0  0  0  0  0  0  0  0
    3.9040    2.4280    1.7890 C   0  0  0  0  0  0  0  0  0  0  0  0
    4.3070    3.0330    2.9680 C   0  0  0  0  0  0  0  0  0  0  0  0
    3.4430    3.9000    3.6320 C   0  0  0  0  0  0  0  0  0  0  0  0
    2.1870    4.1570    3.1070 C   0  0  0  0  0  0  0  0  0  0  0  0
    4.0660    4.3620    4.7560 O   0  0  0  0  0  0  0  0  0  0  0  0
    5.4660    4.0890    4.5580 C   0  0  0  0  0  0  0  0  0  0  0  0
    5.4720    2.9510    3.6760 O   0  0  0  0  0  0  0  0  0  0  0  0
   -2.7250    1.2320   -3.2540 H   0  0  0  0  0  0  0  0  0  0  0  0
   -1.6730    2.6600   -3.4040 H   0  0  0  0  0  0  0  0  0  0  0  0
   -1.3050    1.1830   -4.3260 H   0  0  0  0  0  0  0  0  0  0  0  0
    0.1880    1.3990   -2.3580 H   0  0  0  0  0  0  0  0  0  0  0  0
   -0.8640   -0.0290   -2.2080 H   0  0  0  0  0  0  0  0  0  0  0  0
   -2.4180    1.2670   -0.7740 H   0  0  0  0  0  0  0  0  0  0  0  0
   -1.3660    2.6950   -0.9240 H   0  0  0  0  0  0  0  0  0  0  0  0
   -0.6230    0.0110    0.3230 H   0  0  0  0  0  0  0  0  0  0  0  0
    0.5100    1.3620    0.0790 H   0  0  0  0  0  0  0  0  0  0  0  0
   -4.0000   -1.1000    3.4390 H   0  0  0  0  0  0  0  0  0  0  0  0
   -4.0240    2.9780    5.5830 H   0  0  0  0  0  0  0  0  0  0  0  0
   -2.5700    3.5200    5.5540 H   0  0  0  0  0  0  0  0  0  0  0  0
    0.4300    3.6490    0.2910 H   0  0  0  0  0  0  0  0  0  0  0  0
    0.1470    4.8570    1.5670 H   0  0  0  0  0  0  0  0  0  0  0  0
    2.3350    2.2120    0.3540 H   0  0  0  0  0  0  0  0  0  0  0  0
    4.5720    1.7550    1.2720 H   0  0  0  0  0  0  0  0  0  0  0  0
    1.5160    4.8330    3.6170 H   0  0  0  0  0  0  0  0  0  0  0  0
    5.9590    4.9400    4.0890 H   0  0  0  0  0  0  0  0  0  0  0  0
    5.9450    3.8420    5.5050 H   0  0  0  0  0  0  0  0  0  0  0  0
  1  2  1  0  0  0  0
  1 25  1  0  0  0  0
  1 26  1  0  0  0  0
  1 27  1  0  0  0  0
  2  3  1  0  0  0  0
  2 28  1  0  0  0  0
  2 29  1  0  0  0  0
  3  4  1  0  0  0  0
  3 30  1  0  0  0  0
  3 31  1  0  0  0  0
  4  5  1  0  0  0  0
  4 32  1  0  0  0  0
  4 33  1  0  0  0  0
  5  6  1  0  0  0  0
  5  9  1  0  0  0  0
  6  7  2  0  0  0  0
  6 15  1  0  0  0  0
  7  8  1  0  0  0  0
  8  9  2  0  0  0  0
  8 13  1  0  0  0  0
  9 10  1  0  0  0  0
 10 11  2  0  0  0  0
 11 12  1  0  0  0  0
 11 34  1  0  0  0  0
 12 13  2  0  0  0  0
 13 14  1  0  0  0  0
 14 35  1  0  0  0  0
 14 36  1  0  0  0  0
 15 16  1  0  0  0  0
 15 37  1  0  0  0  0
 15 38  1  0  0  0  0
 16 17  2  0  0  0  0
 16 21  1  0  0  0  0
 17 18  1  0  0  0  0
 17 39  1  0  0  0  0
 18 19  2  0  0  0  0
 18 40  1  0  0  0  0
 19 20  1  0  0  0  0
 19 24  1  0  0  0  0
 20 21  2  0  0  0  0
 20 22  1  0  0  0  0
 21 41  1  0  0  0  0
 22 23  1  0  0  0  0
 23 24  1  0  0  0  0
 23 42  1  0  0  0  0
 23 43  1  0  0  0  0
M  END
$$$$
