ZINC03832018
 OpenBabel12222117043D

 48 50  0  0  0  0  0  0  0  0999 V2000
    1.2760    2.8030   -1.4100 C   0  0  0  0  0  0  0  0  0  0  0  0
    1.3440    3.1610    0.0760 C   0  0  0  0  0  0  0  0  0  0  0  0
    0.0300    3.8180    0.5040 C   0  0  0  0  0  0  0  0  0  0  0  0
    0.1430    4.2860    1.9560 C   0  0  0  0  0  0  0  0  0  0  0  0
   -1.1510    4.8080    2.4020 N   0  0  0  0  0  0  0  0  0  0  0  0
   -2.1190    4.1100    3.0610 C   0  0  0  0  0  0  0  0  0  0  0  0
   -3.1350    4.8850    3.3100 N   0  0  0  0  0  0  0  0  0  0  0  0
   -2.8860    6.1240    2.8230 C   0  0  0  0  0  0  0  0  0  0  0  0
   -1.6120    6.0890    2.2310 C   0  0  0  0  0  0  0  0  0  0  0  0
   -1.1280    7.1940    1.6740 N   0  0  0  0  0  0  0  0  0  0  0  0
   -1.8300    8.3080    1.6730 C   0  0  0  0  0  0  0  0  0  0  0  0
   -3.0300    8.3900    2.2160 N   0  0  0  0  0  0  0  0  0  0  0  0
   -3.5960    7.3370    2.7970 C   0  0  0  0  0  0  0  0  0  0  0  0
   -4.8560    7.4320    3.3630 N   0  0  0  0  0  0  0  0  0  0  0  0
   -2.0240    2.6570    3.4500 C   0  0  0  0  0  0  0  0  0  0  0  0
   -1.4400    2.5450    4.8340 C   0  0  0  0  0  0  0  0  0  0  0  0
   -0.1030    2.2360    4.9960 C   0  0  0  0  0  0  0  0  0  0  0  0
    0.4350    2.1330    6.2700 C   0  0  0  0  0  0  0  0  0  0  0  0
   -0.3690    2.3400    7.3820 C   0  0  0  0  0  0  0  0  0  0  0  0
   -1.7040    2.6530    7.2190 C   0  0  0  0  0  0  0  0  0  0  0  0
   -2.2430    2.7510    5.9450 C   0  0  0  0  0  0  0  0  0  0  0  0
   -3.5590    3.0540    5.7850 O   0  0  0  0  0  0  0  0  0  0  0  0
   -4.2980    3.3800    6.9650 C   0  0  0  0  0  0  0  0  0  0  0  0
    1.7510    1.8300    6.4300 O   0  0  0  0  0  0  0  0  0  0  0  0
    2.2380    1.7400    7.7710 C   0  0  0  0  0  0  0  0  0  0  0  0
    2.1750    2.2560   -1.6940 H   0  0  0  0  0  0  0  0  0  0  0  0
    0.4000    2.1810   -1.5940 H   0  0  0  0  0  0  0  0  0  0  0  0
    1.2040    3.7160   -2.0000 H   0  0  0  0  0  0  0  0  0  0  0  0
    2.1690    3.8530    0.2460 H   0  0  0  0  0  0  0  0  0  0  0  0
    1.5040    2.2550    0.6610 H   0  0  0  0  0  0  0  0  0  0  0  0
   -0.7820    3.0970    0.4160 H   0  0  0  0  0  0  0  0  0  0  0  0
   -0.1730    4.6740   -0.1390 H   0  0  0  0  0  0  0  0  0  0  0  0
    0.8960    5.0710    2.0280 H   0  0  0  0  0  0  0  0  0  0  0  0
    0.4330    3.4460    2.5870 H   0  0  0  0  0  0  0  0  0  0  0  0
   -1.4070    9.1880    1.2110 H   0  0  0  0  0  0  0  0  0  0  0  0
   -5.4740    6.7880    2.9110 H   0  0  0  0  0  0  0  0  0  0  0  0
   -5.3360    8.2740    3.3390 H   0  0  0  0  0  0  0  0  0  0  0  0
   -1.3830    2.1320    2.7410 H   0  0  0  0  0  0  0  0  0  0  0  0
   -3.0190    2.2120    3.4380 H   0  0  0  0  0  0  0  0  0  0  0  0
    0.5230    2.0760    4.1310 H   0  0  0  0  0  0  0  0  0  0  0  0
    0.0500    2.2590    8.3740 H   0  0  0  0  0  0  0  0  0  0  0  0
   -2.3290    2.8190    8.0850 H   0  0  0  0  0  0  0  0  0  0  0  0
   -4.3460    2.5070    7.6160 H   0  0  0  0  0  0  0  0  0  0  0  0
   -5.3080    3.6830    6.6890 H   0  0  0  0  0  0  0  0  0  0  0  0
   -3.8040    4.1980    7.4890 H   0  0  0  0  0  0  0  0  0  0  0  0
    1.6920    0.9620    8.3040 H   0  0  0  0  0  0  0  0  0  0  0  0
    3.3000    1.4930    7.7560 H   0  0  0  0  0  0  0  0  0  0  0  0
    2.0950    2.6960    8.2740 H   0  0  0  0  0  0  0  0  0  0  0  0
  1  2  1  0  0  0  0
  1 26  1  0  0  0  0
  1 27  1  0  0  0  0
  1 28  1  0  0  0  0
  2  3  1  0  0  0  0
  2 29  1  0  0  0  0
  2 30  1  0  0  0  0
  3  4  1  0  0  0  0
  3 31  1  0  0  0  0
  3 32  1  0  0  0  0
  4  5  1  0  0  0  0
  4 33  1  0  0  0  0
  4 34  1  0  0  0  0
  5  6  1  0  0  0  0
  5  9  1  0  0  0  0
  6  7  2  0  0  0  0
  6 15  1  0  0  0  0
  7  8  1  0  0  0  0
  8  9  2  0  0  0  0
  8 13  1  0  0  0  0
  9 10  1  0  0  0  0
 10 11  2  0  0  0  0
 11 12  1  0  0  0  0
 11 35  1  0  0  0  0
 12 13  2  0  0  0  0
 13 14  1  0  0  0  0
 14 36  1  0  0  0  0
 14 37  1  0  0  0  0
 15 16  1  0  0  0  0
 15 38  1  0  0  0  0
 15 39  1  0  0  0  0
 16 17  2  0  0  0  0
 16 21  1  0  0  0  0
 17 18  1  0  0  0  0
 17 40  1  0  0  0  0
 18 19  2  0  0  0  0
 18 24  1  0  0  0  0
 19 20  1  0  0  0  0
 19 41  1  0  0  0  0
 20 21  2  0  0  0  0
 20 42  1  0  0  0  0
 21 22  1  0  0  0  0
 22 23  1  0  0  0  0
 23 43  1  0  0  0  0
 23 44  1  0  0  0  0
 23 45  1  0  0  0  0
 24 25  1  0  0  0  0
 25 46  1  0  0  0  0
 25 47  1  0  0  0  0
 25 48  1  0  0  0  0
M  END
$$$$
