ZINC03833892
 OpenBabel12222117043D

 60 62  0  0  1  0  0  0  0  0999 V2000
    1.3042    5.2065    5.7679 C   0  0  0  0  0  0  0  0  0  0  0  0
    2.6338    5.2694    6.2629 O   0  0  0  0  0  0  0  0  0  0  0  0
    3.5572    4.2844    6.0805 C   0  0  0  0  0  0  0  0  0  0  0  0
    3.3469    3.1533    5.2667 C   0  0  0  0  0  0  0  0  0  0  0  0
    4.2634    2.0634    5.1585 C   0  0  0  0  0  0  0  0  0  0  0  0
    5.5121    2.2492    5.7621 C   0  0  0  0  0  0  0  0  0  0  0  0
    5.7884    3.4419    6.4886 C   0  0  0  0  0  0  0  0  0  0  0  0
    4.7888    4.4173    6.7366 C   0  0  0  0  0  0  0  0  0  0  0  0
    5.1602    5.4145    7.6087 O   0  0  0  0  0  0  0  0  0  0  0  0
    4.2026    6.3543    8.0953 C   0  0  0  0  0  0  0  0  0  0  0  0
    7.0246    3.6390    7.0773 O   0  0  0  0  0  0  0  0  0  0  0  0
    8.0660    3.8213    6.1139 C   0  0  0  0  0  0  0  0  0  0  0  0
    6.7467    1.0268    5.6497 Cl  0  0  0  0  0  0  0  0  0  0  0  0
    3.6517    0.8118    4.5207 C   0  0  0  0  0  0  0  0  0  0  0  0
    4.3732   -0.4974    4.1821 C   0  0  0  0  0  0  0  0  0  0  0  0
    5.0169   -1.2043    5.1159 N   0  0  0  0  0  0  0  0  0  0  0  0
    5.2169   -2.5021    4.4568 C   0  0  2  0  0  0  0  0  0  0  0  0
    4.3047   -3.0929    4.6471 H   0  0  0  0  0  0  0  0  0  0  0  0
    6.3980   -3.3531    4.8756 C   0  0  1  0  0  0  0  0  0  0  0  0
    6.2306   -3.7551    5.8809 H   0  0  0  0  0  0  0  0  0  0  0  0
    6.2034   -4.3776    2.5063 C   0  0  0  0  0  0  0  0  0  0  0  0
    5.3433   -2.1615    2.9868 C   0  0  2  0  0  0  0  0  0  0  0  0
    6.3160   -1.7289    2.7165 H   0  0  0  0  0  0  0  0  0  0  0  0
    4.3195   -1.1694    2.9266 N   0  0  0  0  0  0  0  0  0  0  0  0
    3.9865   -0.5332    1.6472 C   0  0  0  0  0  0  0  0  0  0  0  0
    2.9212   -1.3682    0.9191 C   0  0  0  0  0  0  0  0  0  0  0  0
    2.6592   -0.8934   -0.5094 C   0  0  0  0  0  0  0  0  0  0  0  0
    3.8729   -1.0037   -1.3411 C   0  0  0  0  0  0  0  0  0  0  0  0
    4.8373   -1.0434   -2.0502 C   0  0  0  0  0  0  0  0  0  0  0  0
    0.6216    5.4287    6.5950 H   0  0  0  0  0  0  0  0  0  0  0  0
    0.9976    4.2478    5.3513 H   0  0  0  0  0  0  0  0  0  0  0  0
    1.1798    5.9874    5.0121 H   0  0  0  0  0  0  0  0  0  0  0  0
    2.4193    3.0785    4.7058 H   0  0  0  0  0  0  0  0  0  0  0  0
    3.8855    7.0387    7.3024 H   0  0  0  0  0  0  0  0  0  0  0  0
    3.3480    5.8661    8.5780 H   0  0  0  0  0  0  0  0  0  0  0  0
    4.6898    6.9682    8.8618 H   0  0  0  0  0  0  0  0  0  0  0  0
    8.7697    2.9881    6.2133 H   0  0  0  0  0  0  0  0  0  0  0  0
    7.7083    3.8653    5.0772 H   0  0  0  0  0  0  0  0  0  0  0  0
    8.6094    4.7439    6.3314 H   0  0  0  0  0  0  0  0  0  0  0  0
    2.8873    0.4930    5.2456 H   0  0  0  0  0  0  0  0  0  0  0  0
    3.1006    1.1337    3.6332 H   0  0  0  0  0  0  0  0  0  0  0  0
    7.1352   -4.0383    2.0443 H   0  0  0  0  0  0  0  0  0  0  0  0
    5.8946   -5.3436    2.0955 H   0  0  0  0  0  0  0  0  0  0  0  0
    3.6158    0.4857    1.7740 H   0  0  0  0  0  0  0  0  0  0  0  0
    4.9031   -0.4547    1.0522 H   0  0  0  0  0  0  0  0  0  0  0  0
    3.2043   -2.4255    0.8772 H   0  0  0  0  0  0  0  0  0  0  0  0
    1.9855   -1.3383    1.4913 H   0  0  0  0  0  0  0  0  0  0  0  0
    1.8651   -1.5095   -0.9478 H   0  0  0  0  0  0  0  0  0  0  0  0
    2.2989    0.1394   -0.5004 H   0  0  0  0  0  0  0  0  0  0  0  0
    5.6542   -1.0185   -2.7421 H   0  0  0  0  0  0  0  0  0  0  0  0
    8.1642   -2.2698    4.1426 H   0  0  0  0  0  0  0  0  0  0  0  0
    7.4440   -1.7201    5.5041 H   0  0  0  0  0  0  0  0  0  0  0  0
    6.4558   -4.5361    3.9631 N   0  3  0  0  0  0  0  0  0  0  0  0
    5.7432   -5.2090    4.3097 H   0  0  0  0  0  0  0  0  0  0  0  0
    7.3182   -5.0934    4.1024 H   0  0  0  0  0  0  0  0  0  0  0  0
    5.1566   -3.3859    2.2302 N   0  3  0  0  0  0  0  0  0  0  0  0
    5.1891   -3.1506    1.2216 H   0  0  0  0  0  0  0  0  0  0  0  0
    4.1931   -3.7442    2.3437 H   0  0  0  0  0  0  0  0  0  0  0  0
    7.6555   -2.6001    4.9780 N   0  3  0  0  0  0  0  0  0  0  0  0
    8.3598   -3.0467    5.5953 H   0  0  0  0  0  0  0  0  0  0  0  0
  1  2  1  0  0  0  0
  1 30  1  0  0  0  0
  1 31  1  0  0  0  0
  1 32  1  0  0  0  0
  2  3  1  0  0  0  0
  3  4  2  0  0  0  0
  3  8  1  0  0  0  0
  4  5  1  0  0  0  0
  4 33  1  0  0  0  0
  5  6  2  0  0  0  0
  5 14  1  0  0  0  0
  6  7  1  0  0  0  0
  6 13  1  0  0  0  0
  7  8  2  0  0  0  0
  7 11  1  0  0  0  0
  8  9  1  0  0  0  0
  9 10  1  0  0  0  0
 10 34  1  0  0  0  0
 10 35  1  0  0  0  0
 10 36  1  0  0  0  0
 11 12  1  0  0  0  0
 12 37  1  0  0  0  0
 12 38  1  0  0  0  0
 12 39  1  0  0  0  0
 14 15  1  0  0  0  0
 14 40  1  0  0  0  0
 14 41  1  0  0  0  0
 15 16  2  0  0  0  0
 15 24  1  0  0  0  0
 16 17  1  0  0  0  0
 17 18  1  1  0  0  0
 17 19  1  0  0  0  0
 17 22  1  0  0  0  0
 19 20  1  1  0  0  0
 19 53  1  0  0  0  0
 19 59  1  0  0  0  0
 21 42  1  0  0  0  0
 21 43  1  0  0  0  0
 21 53  1  0  0  0  0
 21 56  1  0  0  0  0
 22 23  1  6  0  0  0
 22 24  1  0  0  0  0
 22 56  1  0  0  0  0
 24 25  1  0  0  0  0
 25 26  1  0  0  0  0
 25 44  1  0  0  0  0
 25 45  1  0  0  0  0
 26 27  1  0  0  0  0
 26 46  1  0  0  0  0
 26 47  1  0  0  0  0
 27 28  1  0  0  0  0
 27 48  1  0  0  0  0
 27 49  1  0  0  0  0
 28 29  3  0  0  0  0
 29 50  1  0  0  0  0
 51 59  1  0  0  0  0
 52 59  1  0  0  0  0
 53 54  1  0  0  0  0
 53 55  1  0  0  0  0
 56 57  1  0  0  0  0
 56 58  1  0  0  0  0
 59 60  1  0  0  0  0
M  CHG  3  53   1  56   1  59   1
M  END
$$$$
