step1_200.xyz.gro
  PyMOL2.5          3D                             0

 23 24  0  0  0  0  0  0  0  0999 V2000
   -9.1301  207.3197  112.8897 C   0  0  0  0  0  0  0  0  0  0  0  0
  -10.1301  207.2898  111.9197 C   0  0  0  0  0  0  0  0  0  0  0  0
  -11.3601  206.6898  112.2097 C   0  0  0  0  0  0  0  0  0  0  0  0
  -11.5901  206.1597  113.4897 C   0  0  0  0  0  0  0  0  0  0  0  0
  -10.5901  206.2097  114.4797 C   0  0  0  0  0  0  0  0  0  0  0  0
   -9.3501  206.7897  114.1697 C   0  0  0  0  0  0  0  0  0  0  0  0
  -16.1601  205.2898  112.8297 C   0  0  0  0  0  0  0  0  0  0  0  0
  -17.3201  205.3598  113.6297 C   0  0  0  0  0  0  0  0  0  0  0  0
  -18.4601  205.9998  113.1197 C   0  0  0  0  0  0  0  0  0  0  0  0
  -18.4101  206.6798  111.9197 C   0  0  0  0  0  0  0  0  0  0  0  0
  -17.1901  206.7998  111.2897 C   0  0  0  0  0  0  0  0  0  0  0  0
  -16.0601  206.0598  111.6697 C   0  0  0  0  0  0  0  0  0  0  0  0
  -12.9301  205.6198  113.8697 C   0  0  0  0  0  0  0  0  0  0  0  0
  -13.5101  205.9298  114.8897 O   0  0  0  0  0  0  0  0  0  0  0  0
  -13.4701  204.7298  112.9597 N   0  0  0  0  0  0  0  0  0  0  0  0
   -7.9701  208.0197  112.5797 O   0  0  0  0  0  0  0  0  0  0  0  0
   -5.9801  206.9797  111.7797 C   0  0  0  0  0  0  0  0  0  0  0  0
   -6.7801  207.3297  113.0097 C   0  0  0  0  0  0  0  0  0  0  0  0
   -5.9601  208.2297  113.9097 C   0  0  0  0  0  0  0  0  0  0  0  0
  -14.9101  204.0098  113.1897 S   0  0  0  0  0  0  0  0  0  0  0  0
  -14.9701  203.0298  112.1297 O   0  0  0  0  0  0  0  0  0  0  0  0
  -15.1001  203.5598  114.5497 O   0  0  0  0  0  0  0  0  0  0  0  0
  -19.4401  207.5098  111.5097 N   0  0  0  0  0  0  0  0  0  0  0  0
  1  2  1  0  0  0  0
  1  6  1  0  0  0  0
  1 16  1  0  0  0  0
  2  3  1  0  0  0  0
  3  4  1  0  0  0  0
  4  5  1  0  0  0  0
  4 13  1  0  0  0  0
  5  6  1  0  0  0  0
  7  8  1  0  0  0  0
  7 12  1  0  0  0  0
  7 20  1  0  0  0  0
  8  9  1  0  0  0  0
  9 10  1  0  0  0  0
 10 11  1  0  0  0  0
 10 23  1  0  0  0  0
 11 12  1  0  0  0  0
 13 14  1  0  0  0  0
 13 15  1  0  0  0  0
 15 20  1  0  0  0  0
 16 18  1  0  0  0  0
 17 18  1  0  0  0  0
 18 19  1  0  0  0  0
 20 21  1  0  0  0  0
 20 22  1  0  0  0  0
M  END
$$$$
