step2_200_2000_5.0_52593.xyz.gro
  PyMOL2.5          3D                             0

 23 24  0  0  0  0  0  0  0  0999 V2000
  -10.9409  206.7331  114.8329 C   0  0  0  0  0  0  0  0  0  0  0  0
  -11.7611  206.9033  113.7231 C   0  0  0  0  0  0  0  0  0  0  0  0
  -13.0711  206.3933  113.7333 C   0  0  0  0  0  0  0  0  0  0  0  0
  -13.5309  205.6931  114.8632 C   0  0  0  0  0  0  0  0  0  0  0  0
  -12.7106  205.5528  115.9930 C   0  0  0  0  0  0  0  0  0  0  0  0
  -11.4006  206.0628  115.9728 C   0  0  0  0  0  0  0  0  0  0  0  0
  -17.8512  204.6634  113.2839 C   0  0  0  0  0  0  0  0  0  0  0  0
  -19.0711  204.4633  113.9541 C   0  0  0  0  0  0  0  0  0  0  0  0
  -20.1211  205.3533  113.7245 C   0  0  0  0  0  0  0  0  0  0  0  0
  -19.9613  206.4235  112.8547 C   0  0  0  0  0  0  0  0  0  0  0  0
  -18.7314  206.6636  112.2545 C   0  0  0  0  0  0  0  0  0  0  0  0
  -17.6714  205.7736  112.4341 C   0  0  0  0  0  0  0  0  0  0  0  0
  -14.8809  205.0531  114.8834 C   0  0  0  0  0  0  0  0  0  0  0  0
  -15.5307  204.9229  115.8935 O   0  0  0  0  0  0  0  0  0  0  0  0
  -15.2011  204.4233  113.6833 N   0  0  0  0  0  0  0  0  0  0  0  0
   -9.6609  207.2631  114.7027 O   0  0  0  0  0  0  0  0  0  0  0  0
   -7.8007  208.3629  115.6925 C   0  0  0  0  0  0  0  0  0  0  0  0
   -9.1906  207.8228  115.9427 C   0  0  0  0  0  0  0  0  0  0  0  0
  -10.0705  208.9727  116.3831 C   0  0  0  0  0  0  0  0  0  0  0  0
  -16.5112  203.4734  113.5034 S   0  0  0  0  0  0  0  0  0  0  0  0
  -16.2714  202.8136  112.2332 O   0  0  0  0  0  0  0  0  0  0  0  0
  -16.7109  202.6831  114.7033 O   0  0  0  0  0  0  0  0  0  0  0  0
  -20.9913  207.3535  112.6851 N   0  0  0  0  0  0  0  0  0  0  0  0
  1  2  1  0  0  0  0
  1  6  1  0  0  0  0
  1 16  1  0  0  0  0
  2  3  1  0  0  0  0
  3  4  1  0  0  0  0
  4  5  1  0  0  0  0
  4 13  1  0  0  0  0
  5  6  1  0  0  0  0
  7  8  1  0  0  0  0
  7 12  1  0  0  0  0
  7 20  1  0  0  0  0
  8  9  1  0  0  0  0
  9 10  1  0  0  0  0
 10 11  1  0  0  0  0
 10 23  1  0  0  0  0
 11 12  1  0  0  0  0
 13 14  1  0  0  0  0
 13 15  1  0  0  0  0
 15 20  1  0  0  0  0
 16 18  1  0  0  0  0
 17 18  1  0  0  0  0
 18 19  1  0  0  0  0
 20 21  1  0  0  0  0
 20 22  1  0  0  0  0
M  END
$$$$
