step2_200_2000_5.0_15568.xyz.gro
  PyMOL2.5          3D                             0

 23 24  0  0  0  0  0  0  0  0999 V2000
   -9.4060  207.4967  116.9201 C   0  0  0  0  0  0  0  0  0  0  0  0
  -10.5260  208.0176  116.2608 C   0  0  0  0  0  0  0  0  0  0  0  0
  -11.6565  207.2283  116.0608 C   0  0  0  0  0  0  0  0  0  0  0  0
  -11.6870  205.8981  116.5400 C   0  0  0  0  0  0  0  0  0  0  0  0
  -10.5570  205.3871  117.2193 C   0  0  0  0  0  0  0  0  0  0  0  0
   -9.4265  206.1764  117.3993 C   0  0  0  0  0  0  0  0  0  0  0  0
  -15.3182  205.7118  113.3612 C   0  0  0  0  0  0  0  0  0  0  0  0
  -16.6085  205.1725  113.4514 C   0  0  0  0  0  0  0  0  0  0  0  0
  -17.6784  205.8234  112.8422 C   0  0  0  0  0  0  0  0  0  0  0  0
  -17.4680  206.9837  112.1027 C   0  0  0  0  0  0  0  0  0  0  0  0
  -16.1978  207.5331  112.0426 C   0  0  0  0  0  0  0  0  0  0  0  0
  -15.0979  206.8921  112.6318 C   0  0  0  0  0  0  0  0  0  0  0  0
  -12.8975  205.0288  116.4399 C   0  0  0  0  0  0  0  0  0  0  0  0
  -12.9578  203.9485  117.0294 O   0  0  0  0  0  0  0  0  0  0  0  0
  -13.9675  205.4398  115.6706 N   0  0  0  0  0  0  0  0  0  0  0  0
   -8.3255  208.3459  117.1302 O   0  0  0  0  0  0  0  0  0  0  0  0
   -6.2057  208.6354  116.0896 C   0  0  0  0  0  0  0  0  0  0  0  0
   -7.0759  207.6854  116.8894 C   0  0  0  0  0  0  0  0  0  0  0  0
   -6.3856  207.4243  118.2189 C   0  0  0  0  0  0  0  0  0  0  0  0
  -13.9384  204.8406  114.1502 S   0  0  0  0  0  0  0  0  0  0  0  0
  -12.7084  205.2603  113.5300 O   0  0  0  0  0  0  0  0  0  0  0  0
  -14.2991  203.4408  114.2295 O   0  0  0  0  0  0  0  0  0  0  0  0
  -18.5778  207.7145  111.6836 N   0  0  0  0  0  0  0  0  0  0  0  0
  1  2  1  0  0  0  0
  1  6  1  0  0  0  0
  1 16  1  0  0  0  0
  2  3  1  0  0  0  0
  3  4  1  0  0  0  0
  4  5  1  0  0  0  0
  4 13  1  0  0  0  0
  5  6  1  0  0  0  0
  7  8  1  0  0  0  0
  7 12  1  0  0  0  0
  7 20  1  0  0  0  0
  8  9  1  0  0  0  0
  9 10  1  0  0  0  0
 10 11  1  0  0  0  0
 10 23  1  0  0  0  0
 11 12  1  0  0  0  0
 13 14  1  0  0  0  0
 13 15  1  0  0  0  0
 15 20  1  0  0  0  0
 16 18  1  0  0  0  0
 17 18  1  0  0  0  0
 18 19  1  0  0  0  0
 20 21  1  0  0  0  0
 20 22  1  0  0  0  0
M  END
$$$$
