step2_200_2000_5.0_86498.xyz.gro
  PyMOL2.5          3D                             0

 23 24  0  0  0  0  0  0  0  0999 V2000
   -6.8165  207.9771  116.0139 C   0  0  0  0  0  0  0  0  0  0  0  0
   -6.9167  208.6571  114.7940 C   0  0  0  0  0  0  0  0  0  0  0  0
   -8.0070  208.4073  113.9542 C   0  0  0  0  0  0  0  0  0  0  0  0
   -9.0070  207.4974  114.3544 C   0  0  0  0  0  0  0  0  0  0  0  0
   -8.9168  206.8774  115.6144 C   0  0  0  0  0  0  0  0  0  0  0  0
   -7.8266  207.1272  116.4441 C   0  0  0  0  0  0  0  0  0  0  0  0
  -13.0576  206.8680  111.9053 C   0  0  0  0  0  0  0  0  0  0  0  0
  -13.3673  207.0080  113.2754 C   0  0  0  0  0  0  0  0  0  0  0  0
  -14.6372  206.6381  113.7357 C   0  0  0  0  0  0  0  0  0  0  0  0
  -15.5975  206.1583  112.8459 C   0  0  0  0  0  0  0  0  0  0  0  0
  -15.3178  206.1383  111.4858 C   0  0  0  0  0  0  0  0  0  0  0  0
  -14.0379  206.4282  111.0055 C   0  0  0  0  0  0  0  0  0  0  0  0
  -10.0972  207.0076  113.4646 C   0  0  0  0  0  0  0  0  0  0  0  0
  -10.7273  206.0076  113.7448 O   0  0  0  0  0  0  0  0  0  0  0  0
  -10.4674  207.8177  112.3748 N   0  0  0  0  0  0  0  0  0  0  0  0
   -5.6863  208.2669  116.7737 O   0  0  0  0  0  0  0  0  0  0  0  0
   -4.7267  206.0568  116.4134 C   0  0  0  0  0  0  0  0  0  0  0  0
   -5.1763  207.0668  117.4335 C   0  0  0  0  0  0  0  0  0  0  0  0
   -3.9761  207.5067  118.2433 C   0  0  0  0  0  0  0  0  0  0  0  0
  -11.4077  207.1778  111.2150 S   0  0  0  0  0  0  0  0  0  0  0  0
  -11.5278  208.2579  110.2550 O   0  0  0  0  0  0  0  0  0  0  0  0
  -10.8280  205.9178  110.8148 O   0  0  0  0  0  0  0  0  0  0  0  0
  -16.9074  205.9984  113.2662 N   0  0  0  0  0  0  0  0  0  0  0  0
  1  2  1  0  0  0  0
  1  6  1  0  0  0  0
  1 16  1  0  0  0  0
  2  3  1  0  0  0  0
  3  4  1  0  0  0  0
  4  5  1  0  0  0  0
  4 13  1  0  0  0  0
  5  6  1  0  0  0  0
  7  8  1  0  0  0  0
  7 12  1  0  0  0  0
  7 20  1  0  0  0  0
  8  9  1  0  0  0  0
  9 10  1  0  0  0  0
 10 11  1  0  0  0  0
 10 23  1  0  0  0  0
 11 12  1  0  0  0  0
 13 14  1  0  0  0  0
 13 15  1  0  0  0  0
 15 20  1  0  0  0  0
 16 18  1  0  0  0  0
 17 18  1  0  0  0  0
 18 19  1  0  0  0  0
 20 21  1  0  0  0  0
 20 22  1  0  0  0  0
M  END
$$$$
