step2_200_2000_5.0_77285.xyz.gro
  PyMOL2.5          3D                             0

 23 24  0  0  0  0  0  0  0  0999 V2000
   -7.7807  209.0473  115.8256 C   0  0  0  0  0  0  0  0  0  0  0  0
   -8.1308  208.8272  114.4956 C   0  0  0  0  0  0  0  0  0  0  0  0
   -9.0408  207.8473  114.1357 C   0  0  0  0  0  0  0  0  0  0  0  0
   -9.6408  207.0473  115.1558 C   0  0  0  0  0  0  0  0  0  0  0  0
   -9.3207  207.2973  116.4957 C   0  0  0  0  0  0  0  0  0  0  0  0
   -8.4007  208.2773  116.8357 C   0  0  0  0  0  0  0  0  0  0  0  0
  -13.1509  204.4873  113.2860 C   0  0  0  0  0  0  0  0  0  0  0  0
  -13.8109  204.3574  114.5161 C   0  0  0  0  0  0  0  0  0  0  0  0
  -15.1809  204.6474  114.5861 C   0  0  0  0  0  0  0  0  0  0  0  0
  -15.8809  204.9874  113.4462 C   0  0  0  0  0  0  0  0  0  0  0  0
  -15.2310  205.1673  112.2361 C   0  0  0  0  0  0  0  0  0  0  0  0
  -13.8510  204.8873  112.1361 C   0  0  0  0  0  0  0  0  0  0  0  0
  -10.5908  205.9273  114.8559 C   0  0  0  0  0  0  0  0  0  0  0  0
  -11.1508  205.3174  115.7559 O   0  0  0  0  0  0  0  0  0  0  0  0
  -10.6509  205.4773  113.5459 N   0  0  0  0  0  0  0  0  0  0  0  0
   -6.8807  210.0473  116.1055 O   0  0  0  0  0  0  0  0  0  0  0  0
   -5.1907  208.5973  117.0855 C   0  0  0  0  0  0  0  0  0  0  0  0
   -6.1006  209.8273  117.2655 C   0  0  0  0  0  0  0  0  0  0  0  0
   -5.2106  211.0173  117.4854 C   0  0  0  0  0  0  0  0  0  0  0  0
  -11.4009  204.0872  113.1460 S   0  0  0  0  0  0  0  0  0  0  0  0
  -11.0710  203.9172  111.7560 O   0  0  0  0  0  0  0  0  0  0  0  0
  -11.0209  203.0673  114.1160 O   0  0  0  0  0  0  0  0  0  0  0  0
  -17.2309  205.4174  113.5662 N   0  0  0  0  0  0  0  0  0  0  0  0
  1  2  1  0  0  0  0
  1  6  1  0  0  0  0
  1 16  1  0  0  0  0
  2  3  1  0  0  0  0
  3  4  1  0  0  0  0
  4  5  1  0  0  0  0
  4 13  1  0  0  0  0
  5  6  1  0  0  0  0
  7  8  1  0  0  0  0
  7 12  1  0  0  0  0
  7 20  1  0  0  0  0
  8  9  1  0  0  0  0
  9 10  1  0  0  0  0
 10 11  1  0  0  0  0
 10 23  1  0  0  0  0
 11 12  1  0  0  0  0
 13 14  1  0  0  0  0
 13 15  1  0  0  0  0
 15 20  1  0  0  0  0
 16 18  1  0  0  0  0
 17 18  1  0  0  0  0
 18 19  1  0  0  0  0
 20 21  1  0  0  0  0
 20 22  1  0  0  0  0
M  END
$$$$
