step2_200_2000_5.0_41842.xyz.gro
  PyMOL2.5          3D                             0

 23 24  0  0  0  0  0  0  0  0999 V2000
   -5.2712  206.9764  113.4193 C   0  0  0  0  0  0  0  0  0  0  0  0
   -6.3813  206.9364  112.5794 C   0  0  0  0  0  0  0  0  0  0  0  0
   -7.6013  206.4565  113.0496 C   0  0  0  0  0  0  0  0  0  0  0  0
   -7.7112  206.0265  114.3896 C   0  0  0  0  0  0  0  0  0  0  0  0
   -6.5911  206.1065  115.2495 C   0  0  0  0  0  0  0  0  0  0  0  0
   -5.3711  206.5965  114.7594 C   0  0  0  0  0  0  0  0  0  0  0  0
  -12.7912  205.5066  113.9101 C   0  0  0  0  0  0  0  0  0  0  0  0
  -13.8011  205.7567  114.8502 C   0  0  0  0  0  0  0  0  0  0  0  0
  -15.0612  206.1667  114.4003 C   0  0  0  0  0  0  0  0  0  0  0  0
  -15.3413  206.2466  113.0403 C   0  0  0  0  0  0  0  0  0  0  0  0
  -14.3014  206.1066  112.1202 C   0  0  0  0  0  0  0  0  0  0  0  0
  -13.0313  205.6866  112.5401 C   0  0  0  0  0  0  0  0  0  0  0  0
   -8.8711  205.2166  114.8097 C   0  0  0  0  0  0  0  0  0  0  0  0
   -8.6411  204.0466  115.0997 O   0  0  0  0  0  0  0  0  0  0  0  0
  -10.1212  205.6966  114.4398 N   0  0  0  0  0  0  0  0  0  0  0  0
   -4.0813  207.4364  112.8592 O   0  0  0  0  0  0  0  0  0  0  0  0
   -2.1014  206.3563  112.0890 C   0  0  0  0  0  0  0  0  0  0  0  0
   -2.9513  206.6664  113.3091 C   0  0  0  0  0  0  0  0  0  0  0  0
   -2.1211  207.4864  114.2790 C   0  0  0  0  0  0  0  0  0  0  0  0
  -11.3112  204.5866  114.4400 S   0  0  0  0  0  0  0  0  0  0  0  0
  -11.0313  203.6666  113.3600 O   0  0  0  0  0  0  0  0  0  0  0  0
  -11.5211  204.1266  115.7900 O   0  0  0  0  0  0  0  0  0  0  0  0
  -16.6013  206.6767  112.6105 N   0  0  0  0  0  0  0  0  0  0  0  0
  1  2  1  0  0  0  0
  1  6  1  0  0  0  0
  1 16  1  0  0  0  0
  2  3  1  0  0  0  0
  3  4  1  0  0  0  0
  4  5  1  0  0  0  0
  4 13  1  0  0  0  0
  5  6  1  0  0  0  0
  7  8  1  0  0  0  0
  7 12  1  0  0  0  0
  7 20  1  0  0  0  0
  8  9  1  0  0  0  0
  9 10  1  0  0  0  0
 10 11  1  0  0  0  0
 10 23  1  0  0  0  0
 11 12  1  0  0  0  0
 13 14  1  0  0  0  0
 13 15  1  0  0  0  0
 15 20  1  0  0  0  0
 16 18  1  0  0  0  0
 17 18  1  0  0  0  0
 18 19  1  0  0  0  0
 20 21  1  0  0  0  0
 20 22  1  0  0  0  0
M  END
$$$$
