step2_200_2000_5.0_47873.xyz.gro
  PyMOL2.5          3D                             0

 23 24  0  0  0  0  0  0  0  0999 V2000
   -9.1933  208.4919  114.7636 C   0  0  0  0  0  0  0  0  0  0  0  0
   -9.5434  208.1216  113.4637 C   0  0  0  0  0  0  0  0  0  0  0  0
  -10.4936  207.1017  113.2740 C   0  0  0  0  0  0  0  0  0  0  0  0
  -11.0837  206.4821  114.3942 C   0  0  0  0  0  0  0  0  0  0  0  0
  -10.7435  206.8924  115.6941 C   0  0  0  0  0  0  0  0  0  0  0  0
   -9.7934  207.9123  115.8738 C   0  0  0  0  0  0  0  0  0  0  0  0
  -14.7241  204.1524  113.0850 C   0  0  0  0  0  0  0  0  0  0  0  0
  -15.4741  203.7328  114.1951 C   0  0  0  0  0  0  0  0  0  0  0  0
  -16.8241  204.0930  114.2751 C   0  0  0  0  0  0  0  0  0  0  0  0
  -17.4240  204.8129  113.2449 C   0  0  0  0  0  0  0  0  0  0  0  0
  -16.6339  205.3524  112.2347 C   0  0  0  0  0  0  0  0  0  0  0  0
  -15.2940  204.9922  112.1148 C   0  0  0  0  0  0  0  0  0  0  0  0
  -12.0838  205.3723  114.2846 C   0  0  0  0  0  0  0  0  0  0  0  0
  -12.8139  205.0626  115.1947 O   0  0  0  0  0  0  0  0  0  0  0  0
  -12.0740  204.6819  113.0747 N   0  0  0  0  0  0  0  0  0  0  0  0
   -8.2431  209.4818  114.9233 O   0  0  0  0  0  0  0  0  0  0  0  0
   -6.3633  208.5211  113.7135 C   0  0  0  0  0  0  0  0  0  0  0  0
   -6.9632  208.8316  115.0734 C   0  0  0  0  0  0  0  0  0  0  0  0
   -6.0730  209.7916  115.7932 C   0  0  0  0  0  0  0  0  0  0  0  0
  -13.0842  203.4420  112.8051 S   0  0  0  0  0  0  0  0  0  0  0  0
  -12.9543  203.2116  111.3852 O   0  0  0  0  0  0  0  0  0  0  0  0
  -12.8244  202.4022  113.7754 O   0  0  0  0  0  0  0  0  0  0  0  0
  -18.7739  205.1131  113.3049 N   0  0  0  0  0  0  0  0  0  0  0  0
  1  2  1  0  0  0  0
  1  6  1  0  0  0  0
  1 16  1  0  0  0  0
  2  3  1  0  0  0  0
  3  4  1  0  0  0  0
  4  5  1  0  0  0  0
  4 13  1  0  0  0  0
  5  6  1  0  0  0  0
  7  8  1  0  0  0  0
  7 12  1  0  0  0  0
  7 20  1  0  0  0  0
  8  9  1  0  0  0  0
  9 10  1  0  0  0  0
 10 11  1  0  0  0  0
 10 23  1  0  0  0  0
 11 12  1  0  0  0  0
 13 14  1  0  0  0  0
 13 15  1  0  0  0  0
 15 20  1  0  0  0  0
 16 18  1  0  0  0  0
 17 18  1  0  0  0  0
 18 19  1  0  0  0  0
 20 21  1  0  0  0  0
 20 22  1  0  0  0  0
M  END
$$$$
