step2_200_2000_5.0_13001.xyz.gro
  PyMOL2.5          3D                             0

 23 24  0  0  0  0  0  0  0  0999 V2000
   -9.1074  207.0623  114.0700 C   0  0  0  0  0  0  0  0  0  0  0  0
   -9.7673  206.7522  112.8699 C   0  0  0  0  0  0  0  0  0  0  0  0
  -11.1173  206.4023  112.8698 C   0  0  0  0  0  0  0  0  0  0  0  0
  -11.8275  206.3826  114.0997 C   0  0  0  0  0  0  0  0  0  0  0  0
  -11.1776  206.7528  115.2898 C   0  0  0  0  0  0  0  0  0  0  0  0
   -9.8176  207.0626  115.2699 C   0  0  0  0  0  0  0  0  0  0  0  0
  -16.3675  204.9228  112.9294 C   0  0  0  0  0  0  0  0  0  0  0  0
  -17.6175  204.2629  112.9793 C   0  0  0  0  0  0  0  0  0  0  0  0
  -18.7374  204.9130  112.4691 C   0  0  0  0  0  0  0  0  0  0  0  0
  -18.6472  206.1828  111.9088 C   0  0  0  0  0  0  0  0  0  0  0  0
  -17.4271  206.8427  111.9189 C   0  0  0  0  0  0  0  0  0  0  0  0
  -16.2673  206.2127  112.3992 C   0  0  0  0  0  0  0  0  0  0  0  0
  -13.2475  205.9627  114.1696 C   0  0  0  0  0  0  0  0  0  0  0  0
  -14.0376  206.4730  114.9694 O   0  0  0  0  0  0  0  0  0  0  0  0
  -13.6375  204.9726  113.3097 N   0  0  0  0  0  0  0  0  0  0  0  0
   -7.7474  207.3722  114.1901 O   0  0  0  0  0  0  0  0  0  0  0  0
   -7.1670  208.4618  112.1200 C   0  0  0  0  0  0  0  0  0  0  0  0
   -7.0173  207.2319  112.9502 C   0  0  0  0  0  0  0  0  0  0  0  0
   -5.5473  207.0719  113.3405 C   0  0  0  0  0  0  0  0  0  0  0  0
  -14.9276  204.0228  113.6197 S   0  0  0  0  0  0  0  0  0  0  0  0
  -14.6776  202.8726  112.7900 O   0  0  0  0  0  0  0  0  0  0  0  0
  -15.0878  203.8731  115.0498 O   0  0  0  0  0  0  0  0  0  0  0  0
  -19.7771  206.9029  111.6586 N   0  0  0  0  0  0  0  0  0  0  0  0
  1  2  1  0  0  0  0
  1  6  1  0  0  0  0
  1 16  1  0  0  0  0
  2  3  1  0  0  0  0
  3  4  1  0  0  0  0
  4  5  1  0  0  0  0
  4 13  1  0  0  0  0
  5  6  1  0  0  0  0
  7  8  1  0  0  0  0
  7 12  1  0  0  0  0
  7 20  1  0  0  0  0
  8  9  1  0  0  0  0
  9 10  1  0  0  0  0
 10 11  1  0  0  0  0
 10 23  1  0  0  0  0
 11 12  1  0  0  0  0
 13 14  1  0  0  0  0
 13 15  1  0  0  0  0
 15 20  1  0  0  0  0
 16 18  1  0  0  0  0
 17 18  1  0  0  0  0
 18 19  1  0  0  0  0
 20 21  1  0  0  0  0
 20 22  1  0  0  0  0
M  END
$$$$
