ZINC00577969
 OpenBabel12162120293D

 65 68  0  0  1  0  0  0  0  0999 V2000
   -2.9570    3.8620   -2.8440 C   0  0  0  0  0  0  0  0  0  0  0  0
   -1.7500    4.6950   -2.4960 C   0  0  0  0  0  0  0  0  0  0  0  0
   -1.2600    5.6150   -3.4050 C   0  0  0  0  0  0  0  0  0  0  0  0
   -0.1570    6.3860   -3.0880 C   0  0  0  0  0  0  0  0  0  0  0  0
    0.4640    6.2350   -1.8640 C   0  0  0  0  0  0  0  0  0  0  0  0
   -0.0220    5.3080   -0.9500 C   0  0  0  0  0  0  0  0  0  0  0  0
   -1.1310    4.5350   -1.2720 C   0  0  0  0  0  0  0  0  0  0  0  0
    0.6030    5.1530    0.2890 N   0  0  0  0  0  0  0  0  0  0  0  0
    1.8580    5.8550    0.5700 C   0  0  2  0  0  0  0  0  0  0  0  0
    2.3990    5.4120    1.9320 C   0  0  0  0  0  0  0  0  0  0  0  0
    1.3960    5.7990    3.0220 C   0  0  0  0  0  0  0  0  0  0  0  0
    0.6260    7.6940    1.7240 C   0  0  0  0  0  0  0  0  0  0  0  0
    1.6050    7.3650    0.5950 C   0  0  0  0  0  0  0  0  0  0  0  0
    0.3390    7.6760    4.1270 C   0  0  0  0  0  0  0  0  0  0  0  0
    0.9050    7.1390    5.4170 C   0  0  0  0  0  0  0  0  0  0  0  0
    0.5480    5.9980    6.0360 C   0  0  0  0  0  0  0  0  0  0  0  0
    1.2880    5.8820    7.1490 N   0  0  0  0  0  0  0  0  0  0  0  0
    2.0830    6.9120    7.2480 C   0  0  0  0  0  0  0  0  0  0  0  0
    1.8760    7.7210    6.1860 N   0  0  0  0  0  0  0  0  0  0  0  0
    2.5630    8.9850    5.9110 C   0  0  0  0  0  0  0  0  0  0  0  0
    1.7780   10.1240    6.5090 C   0  0  0  0  0  0  0  0  0  0  0  0
    0.7660   10.7210    5.7780 C   0  0  0  0  0  0  0  0  0  0  0  0
    0.0400   11.7610    6.3220 C   0  0  0  0  0  0  0  0  0  0  0  0
    0.3360   12.2180    7.6080 C   0  0  0  0  0  0  0  0  0  0  0  0
    1.3620   11.6140    8.3370 C   0  0  0  0  0  0  0  0  0  0  0  0
    2.0760   10.5710    7.7840 C   0  0  0  0  0  0  0  0  0  0  0  0
   -0.4100   13.3000    8.1760 C   0  0  0  0  0  0  0  0  0  0  0  0
   -1.0020   14.1580    8.6270 N   0  0  0  0  0  0  0  0  0  0  0  0
    2.8820    5.5260   -0.5190 C   0  0  0  0  0  0  0  0  0  0  0  0
    3.0290    4.0850   -0.6260 O   0  0  0  0  0  0  0  0  0  0  0  0
    3.8210    3.6230   -1.6120 C   0  0  0  0  0  0  0  0  0  0  0  0
    4.4480    4.4020   -2.3030 O   0  0  0  0  0  0  0  0  0  0  0  0
    3.9190    2.2970   -1.8320 N   0  0  0  0  0  0  0  0  0  0  0  0
   -2.6350    2.9400   -3.3270 H   0  0  0  0  0  0  0  0  0  0  0  0
   -3.5070    3.6220   -1.9340 H   0  0  0  0  0  0  0  0  0  0  0  0
   -3.6020    4.4220   -3.5210 H   0  0  0  0  0  0  0  0  0  0  0  0
   -1.7440    5.7350   -4.3640 H   0  0  0  0  0  0  0  0  0  0  0  0
    0.2200    7.1070   -3.7990 H   0  0  0  0  0  0  0  0  0  0  0  0
    1.3260    6.8360   -1.6160 H   0  0  0  0  0  0  0  0  0  0  0  0
   -1.5110    3.8130   -0.5640 H   0  0  0  0  0  0  0  0  0  0  0  0
    0.2060    4.5800    0.9640 H   0  0  0  0  0  0  0  0  0  0  0  0
    2.5410    4.3310    1.9330 H   0  0  0  0  0  0  0  0  0  0  0  0
    3.3520    5.9050    2.1230 H   0  0  0  0  0  0  0  0  0  0  0  0
    1.7840    5.4980    3.9960 H   0  0  0  0  0  0  0  0  0  0  0  0
    0.4470    5.2950    2.8380 H   0  0  0  0  0  0  0  0  0  0  0  0
    0.4550    8.7700    1.7530 H   0  0  0  0  0  0  0  0  0  0  0  0
   -0.3190    7.1810    1.5460 H   0  0  0  0  0  0  0  0  0  0  0  0
    2.5460    7.8880    0.7650 H   0  0  0  0  0  0  0  0  0  0  0  0
    1.1810    7.6780   -0.3590 H   0  0  0  0  0  0  0  0  0  0  0  0
    0.3090    8.7650    4.1690 H   0  0  0  0  0  0  0  0  0  0  0  0
   -0.6700    7.2900    3.9850 H   0  0  0  0  0  0  0  0  0  0  0  0
   -0.2000    5.2980    5.6950 H   0  0  0  0  0  0  0  0  0  0  0  0
    2.7900    7.0870    8.0450 H   0  0  0  0  0  0  0  0  0  0  0  0
    3.5600    8.9610    6.3500 H   0  0  0  0  0  0  0  0  0  0  0  0
    2.6440    9.1270    4.8330 H   0  0  0  0  0  0  0  0  0  0  0  0
    0.5400   10.3700    4.7820 H   0  0  0  0  0  0  0  0  0  0  0  0
   -0.7530   12.2230    5.7520 H   0  0  0  0  0  0  0  0  0  0  0  0
    1.5960   11.9620    9.3320 H   0  0  0  0  0  0  0  0  0  0  0  0
    2.8700   10.1030    8.3470 H   0  0  0  0  0  0  0  0  0  0  0  0
    2.5410    5.9280   -1.4720 H   0  0  0  0  0  0  0  0  0  0  0  0
    3.8430    5.9710   -0.2600 H   0  0  0  0  0  0  0  0  0  0  0  0
    3.3640    1.6800   -1.3290 H   0  0  0  0  0  0  0  0  0  0  0  0
    4.5430    1.9600   -2.4930 H   0  0  0  0  0  0  0  0  0  0  0  0
    1.2150    7.2660    3.0100 N   0  3  1  0  0  0  0  0  0  0  0  0
    2.1310    7.7160    3.1230 H   0  0  0  0  0  0  0  0  0  0  0  0
  1  2  1  0  0  0  0
  1 34  1  0  0  0  0
  1 35  1  0  0  0  0
  1 36  1  0  0  0  0
  2  3  2  0  0  0  0
  2  7  1  0  0  0  0
  3  4  1  0  0  0  0
  3 37  1  0  0  0  0
  4  5  2  0  0  0  0
  4 38  1  0  0  0  0
  5  6  1  0  0  0  0
  5 39  1  0  0  0  0
  6  7  2  0  0  0  0
  6  8  1  0  0  0  0
  7 40  1  0  0  0  0
  8 41  1  0  0  0  0
  9  8  1  6  0  0  0
  9 10  1  0  0  0  0
  9 13  1  0  0  0  0
  9 29  1  0  0  0  0
 10 11  1  0  0  0  0
 10 42  1  0  0  0  0
 10 43  1  0  0  0  0
 11 44  1  0  0  0  0
 11 45  1  0  0  0  0
 11 64  1  0  0  0  0
 12 13  1  0  0  0  0
 12 46  1  0  0  0  0
 12 47  1  0  0  0  0
 12 64  1  0  0  0  0
 13 48  1  0  0  0  0
 13 49  1  0  0  0  0
 14 15  1  0  0  0  0
 14 50  1  0  0  0  0
 14 51  1  0  0  0  0
 14 64  1  0  0  0  0
 15 16  2  0  0  0  0
 15 19  1  0  0  0  0
 16 17  1  0  0  0  0
 16 52  1  0  0  0  0
 17 18  2  0  0  0  0
 18 19  1  0  0  0  0
 18 53  1  0  0  0  0
 19 20  1  0  0  0  0
 20 21  1  0  0  0  0
 20 54  1  0  0  0  0
 20 55  1  0  0  0  0
 21 22  2  0  0  0  0
 21 26  1  0  0  0  0
 22 23  1  0  0  0  0
 22 56  1  0  0  0  0
 23 24  2  0  0  0  0
 23 57  1  0  0  0  0
 24 25  1  0  0  0  0
 24 27  1  0  0  0  0
 25 26  2  0  0  0  0
 25 58  1  0  0  0  0
 26 59  1  0  0  0  0
 27 28  3  0  0  0  0
 29 30  1  0  0  0  0
 29 60  1  0  0  0  0
 29 61  1  0  0  0  0
 30 31  1  0  0  0  0
 31 32  2  0  0  0  0
 31 33  1  0  0  0  0
 33 62  1  0  0  0  0
 33 63  1  0  0  0  0
 64 65  1  1  0  0  0
M  CHG  1  64   1
M  END
$$$$
