ZINC00587692
 OpenBabel12162120153D

 53 55  0  0  0  0  0  0  0  0999 V2000
   -3.1760    4.4773   -9.0829 C   0  0  0  0  0  0  0  0  0  0  0  0
   -1.8089    4.9709   -9.2189 N   0  0  0  0  0  0  0  0  0  0  0  0
   -1.4823    5.6520  -10.4687 C   0  0  0  0  0  0  0  0  0  0  0  0
   -0.7831    4.3760   -8.4813 C   0  0  0  0  0  0  0  0  0  0  0  0
   -1.0276    3.3360   -7.5702 C   0  0  0  0  0  0  0  0  0  0  0  0
   -0.0027    2.7379   -6.8284 C   0  0  0  0  0  0  0  0  0  0  0  0
    1.3182    3.1666   -6.9637 C   0  0  0  0  0  0  0  0  0  0  0  0
    1.5933    4.2081   -7.8477 C   0  0  0  0  0  0  0  0  0  0  0  0
    0.5536    4.8027   -8.5838 C   0  0  0  0  0  0  0  0  0  0  0  0
    2.3580    2.4501   -6.1699 C   0  0  0  0  0  0  0  0  0  0  0  0
    2.1063    1.3055   -5.8040 O   0  0  0  0  0  0  0  0  0  0  0  0
    3.4907    3.1694   -5.8489 N   0  0  0  0  0  0  0  0  0  0  0  0
    4.5524    2.7443   -5.0113 C   0  0  0  0  0  0  0  0  0  0  0  0
    4.7643    1.3700   -4.8069 C   0  0  0  0  0  0  0  0  0  0  0  0
    5.6934    0.9188   -3.8782 C   0  0  0  0  0  0  0  0  0  0  0  0
    6.4483    1.8161   -3.1482 C   0  0  0  0  0  0  0  0  0  0  0  0
    6.2922    3.1851   -3.3747 C   0  0  0  0  0  0  0  0  0  0  0  0
    5.3769    3.6757   -4.3307 C   0  0  0  0  0  0  0  0  0  0  0  0
    5.3718    5.0956   -4.4638 N   0  0  0  0  0  0  0  0  0  0  0  0
    4.8770    5.8604   -5.5000 C   0  0  0  0  0  0  0  0  0  0  0  0
    4.3324    5.4347   -6.5128 O   0  0  0  0  0  0  0  0  0  0  0  0
    5.0879    7.3287   -5.4091 C   0  0  0  0  0  0  0  0  0  0  0  0
    5.1873    8.0460   -6.6099 C   0  0  0  0  0  0  0  0  0  0  0  0
    5.4340    9.4200   -6.5997 C   0  0  0  0  0  0  0  0  0  0  0  0
    5.5788   10.0905   -5.3867 C   0  0  0  0  0  0  0  0  0  0  0  0
    5.4189    9.3854   -4.1889 C   0  0  0  0  0  0  0  0  0  0  0  0
    5.1695    8.0092   -4.1923 C   0  0  0  0  0  0  0  0  0  0  0  0
    5.8675   11.4189   -5.2402 O   0  0  0  0  0  0  0  0  0  0  0  0
    6.1951   12.1331   -6.4271 C   0  0  0  0  0  0  0  0  0  0  0  0
    5.8669   -0.4133   -3.6464 O   0  0  0  0  0  0  0  0  0  0  0  0
   -3.8769    5.0712   -9.6792 H   0  0  0  0  0  0  0  0  0  0  0  0
   -3.5155    4.5589   -8.0440 H   0  0  0  0  0  0  0  0  0  0  0  0
   -3.2585    3.4361   -9.4145 H   0  0  0  0  0  0  0  0  0  0  0  0
   -0.9256    6.5747  -10.2750 H   0  0  0  0  0  0  0  0  0  0  0  0
   -0.8997    5.0061  -11.1353 H   0  0  0  0  0  0  0  0  0  0  0  0
   -2.3865    5.9472  -11.0132 H   0  0  0  0  0  0  0  0  0  0  0  0
   -2.0277    2.9414   -7.4205 H   0  0  0  0  0  0  0  0  0  0  0  0
   -0.2477    1.9288   -6.1432 H   0  0  0  0  0  0  0  0  0  0  0  0
    2.6053    4.5670   -8.0058 H   0  0  0  0  0  0  0  0  0  0  0  0
    0.8236    5.6219   -9.2445 H   0  0  0  0  0  0  0  0  0  0  0  0
    3.5025    4.1546   -6.0881 H   0  0  0  0  0  0  0  0  0  0  0  0
    4.2068    0.6396   -5.3838 H   0  0  0  0  0  0  0  0  0  0  0  0
    7.1568    1.4533   -2.4091 H   0  0  0  0  0  0  0  0  0  0  0  0
    6.9082    3.8635   -2.7908 H   0  0  0  0  0  0  0  0  0  0  0  0
    5.9670    5.5814   -3.8050 H   0  0  0  0  0  0  0  0  0  0  0  0
    5.0824    7.5335   -7.5650 H   0  0  0  0  0  0  0  0  0  0  0  0
    5.5099    9.9302   -7.5542 H   0  0  0  0  0  0  0  0  0  0  0  0
    5.4935    9.9171   -3.2426 H   0  0  0  0  0  0  0  0  0  0  0  0
    5.0226    7.5004   -3.2444 H   0  0  0  0  0  0  0  0  0  0  0  0
    7.0283   11.6638   -6.9622 H   0  0  0  0  0  0  0  0  0  0  0  0
    5.3174   12.2327   -7.0739 H   0  0  0  0  0  0  0  0  0  0  0  0
    6.5140   13.1383   -6.1363 H   0  0  0  0  0  0  0  0  0  0  0  0
    5.1609   -0.8937   -4.1145 H   0  0  0  0  0  0  0  0  0  0  0  0
  1  2  1  0  0  0  0
  1 31  1  0  0  0  0
  1 32  1  0  0  0  0
  1 33  1  0  0  0  0
  2  3  1  0  0  0  0
  2  4  1  0  0  0  0
  3 34  1  0  0  0  0
  3 35  1  0  0  0  0
  3 36  1  0  0  0  0
  4  5  2  0  0  0  0
  4  9  1  0  0  0  0
  5  6  1  0  0  0  0
  5 37  1  0  0  0  0
  6  7  2  0  0  0  0
  6 38  1  0  0  0  0
  7  8  1  0  0  0  0
  7 10  1  0  0  0  0
  8  9  2  0  0  0  0
  8 39  1  0  0  0  0
  9 40  1  0  0  0  0
 10 11  2  0  0  0  0
 10 12  1  0  0  0  0
 12 13  1  0  0  0  0
 12 41  1  0  0  0  0
 13 14  2  0  0  0  0
 13 18  1  0  0  0  0
 14 15  1  0  0  0  0
 14 42  1  0  0  0  0
 15 16  2  0  0  0  0
 15 30  1  0  0  0  0
 16 17  1  0  0  0  0
 16 43  1  0  0  0  0
 17 18  2  0  0  0  0
 17 44  1  0  0  0  0
 18 19  1  0  0  0  0
 19 20  1  0  0  0  0
 19 45  1  0  0  0  0
 20 21  2  0  0  0  0
 20 22  1  0  0  0  0
 22 23  2  0  0  0  0
 22 27  1  0  0  0  0
 23 24  1  0  0  0  0
 23 46  1  0  0  0  0
 24 25  2  0  0  0  0
 24 47  1  0  0  0  0
 25 26  1  0  0  0  0
 25 28  1  0  0  0  0
 26 27  2  0  0  0  0
 26 48  1  0  0  0  0
 27 49  1  0  0  0  0
 28 29  1  0  0  0  0
 29 50  1  0  0  0  0
 29 51  1  0  0  0  0
 29 52  1  0  0  0  0
 30 53  1  0  0  0  0
M  END
$$$$
