ZINC00002112
 OpenBabel12132116373D

 39 41  0  0  0  0  0  0  0  0999 V2000
    1.6730    5.8330    2.8040 C   0  0  0  0  0  0  0  0  0  0  0  0
    0.5330    4.8520    2.9110 C   0  0  0  0  0  0  0  0  0  0  0  0
   -0.0250    4.1300    1.8520 C   0  0  0  0  0  0  0  0  0  0  0  0
   -1.0290    3.3600    2.3550 C   0  0  0  0  0  0  0  0  0  0  0  0
   -1.0880    3.5910    3.6950 N   0  0  0  0  0  0  0  0  0  0  0  0
   -0.0970    4.5300    4.0110 N   0  0  0  0  0  0  0  0  0  0  0  0
   -1.9800    2.9960    4.5970 C   0  0  0  0  0  0  0  0  0  0  0  0
   -3.2790    2.7050    4.2020 C   0  0  0  0  0  0  0  0  0  0  0  0
   -4.1540    2.1140    5.0920 C   0  0  0  0  0  0  0  0  0  0  0  0
   -3.7410    1.8210    6.3790 C   0  0  0  0  0  0  0  0  0  0  0  0
   -2.4500    2.1140    6.7770 C   0  0  0  0  0  0  0  0  0  0  0  0
   -1.5680    2.7010    5.8900 C   0  0  0  0  0  0  0  0  0  0  0  0
   -1.8420    2.4920    1.6320 N   0  0  0  0  0  0  0  0  0  0  0  0
   -1.8000    2.5030   -0.0230 S   0  0  0  0  0  0  0  0  0  0  0  0
   -2.7630    1.5540   -0.4600 O   0  0  0  0  0  0  0  0  0  0  0  0
   -0.4310    2.4250   -0.3950 O   0  0  0  0  0  0  0  0  0  0  0  0
   -2.3750    4.0830   -0.5490 C   0  0  0  0  0  0  0  0  0  0  0  0
   -3.7320    4.3120   -0.6890 C   0  0  0  0  0  0  0  0  0  0  0  0
   -4.1850    5.5480   -1.1060 C   0  0  0  0  0  0  0  0  0  0  0  0
   -3.2780    6.5610   -1.3860 C   0  0  0  0  0  0  0  0  0  0  0  0
   -1.9160    6.3280   -1.2440 C   0  0  0  0  0  0  0  0  0  0  0  0
   -1.4680    5.0900   -0.8260 C   0  0  0  0  0  0  0  0  0  0  0  0
   -3.7330    7.8120   -1.8080 N   0  0  0  0  0  0  0  0  0  0  0  0
    2.6180    5.3070    2.9390 H   0  0  0  0  0  0  0  0  0  0  0  0
    1.6560    6.3040    1.8210 H   0  0  0  0  0  0  0  0  0  0  0  0
    1.5680    6.5970    3.5740 H   0  0  0  0  0  0  0  0  0  0  0  0
    0.2840    4.1760    0.8180 H   0  0  0  0  0  0  0  0  0  0  0  0
   -3.6030    2.9380    3.1980 H   0  0  0  0  0  0  0  0  0  0  0  0
   -5.1630    1.8830    4.7830 H   0  0  0  0  0  0  0  0  0  0  0  0
   -4.4290    1.3620    7.0740 H   0  0  0  0  0  0  0  0  0  0  0  0
   -2.1300    1.8850    7.7830 H   0  0  0  0  0  0  0  0  0  0  0  0
   -0.5600    2.9300    6.2020 H   0  0  0  0  0  0  0  0  0  0  0  0
   -2.4340    1.8810    2.0980 H   0  0  0  0  0  0  0  0  0  0  0  0
   -4.4370    3.5240   -0.4720 H   0  0  0  0  0  0  0  0  0  0  0  0
   -5.2450    5.7260   -1.2160 H   0  0  0  0  0  0  0  0  0  0  0  0
   -1.2070    7.1140   -1.4610 H   0  0  0  0  0  0  0  0  0  0  0  0
   -0.4100    4.9080   -0.7160 H   0  0  0  0  0  0  0  0  0  0  0  0
   -3.0980    8.5200   -2.0020 H   0  0  0  0  0  0  0  0  0  0  0  0
   -4.6840    7.9740   -1.9060 H   0  0  0  0  0  0  0  0  0  0  0  0
  1  2  1  0  0  0  0
  1 24  1  0  0  0  0
  1 25  1  0  0  0  0
  1 26  1  0  0  0  0
  2  3  1  0  0  0  0
  2  6  2  0  0  0  0
  3  4  2  0  0  0  0
  3 27  1  0  0  0  0
  4  5  1  0  0  0  0
  4 13  1  0  0  0  0
  5  6  1  0  0  0  0
  5  7  1  0  0  0  0
  7  8  2  0  0  0  0
  7 12  1  0  0  0  0
  8  9  1  0  0  0  0
  8 28  1  0  0  0  0
  9 10  2  0  0  0  0
  9 29  1  0  0  0  0
 10 11  1  0  0  0  0
 10 30  1  0  0  0  0
 11 12  2  0  0  0  0
 11 31  1  0  0  0  0
 12 32  1  0  0  0  0
 13 14  1  0  0  0  0
 13 33  1  0  0  0  0
 14 15  2  0  0  0  0
 14 16  2  0  0  0  0
 14 17  1  0  0  0  0
 17 18  2  0  0  0  0
 17 22  1  0  0  0  0
 18 19  1  0  0  0  0
 18 34  1  0  0  0  0
 19 20  2  0  0  0  0
 19 35  1  0  0  0  0
 20 21  1  0  0  0  0
 20 23  1  0  0  0  0
 21 22  2  0  0  0  0
 21 36  1  0  0  0  0
 22 37  1  0  0  0  0
 23 38  1  0  0  0  0
 23 39  1  0  0  0  0
M  END
$$$$
