ZINC00011880
 OpenBabel12132116373D

 40 42  0  0  1  0  0  0  0  0999 V2000
   -7.2250    9.7040    0.9480 C   0  0  0  0  0  0  0  0  0  0  0  0
   -7.3360    8.3350    0.2730 C   0  0  0  0  0  0  0  0  0  0  0  0
   -6.1130    7.4880    0.6400 C   0  0  1  0  0  0  0  0  0  0  0  0
   -6.0160    7.4350    1.7240 H   0  0  0  0  0  0  0  0  0  0  0  0
   -6.3100    6.0730    0.0670 C   0  0  1  0  0  0  0  0  0  0  0  0
   -7.0350    5.5260    0.6700 H   0  0  0  0  0  0  0  0  0  0  0  0
   -6.8210    6.2210   -1.3290 C   0  0  0  0  0  0  0  0  0  0  0  0
   -7.3310    7.3520   -1.8960 C   0  0  0  0  0  0  0  0  0  0  0  0
   -7.7460    7.2540   -3.2220 C   0  0  0  0  0  0  0  0  0  0  0  0
   -7.6330    6.0740   -3.8790 C   0  0  0  0  0  0  0  0  0  0  0  0
   -6.9160    5.0200   -2.6260 S   0  0  0  0  0  0  0  0  0  0  0  0
   -7.4080    8.5100   -1.1440 O   0  0  0  0  0  0  0  0  0  0  0  0
   -5.0320    5.3580    0.0560 N   0  0  0  0  0  0  0  0  0  0  0  0
   -5.0130    4.0100    0.0490 C   0  0  0  0  0  0  0  0  0  0  0  0
   -6.0580    3.3880    0.0510 O   0  0  0  0  0  0  0  0  0  0  0  0
   -3.7230    3.2880    0.0380 C   0  0  0  0  0  0  0  0  0  0  0  0
   -3.7000    1.8930    0.0300 C   0  0  0  0  0  0  0  0  0  0  0  0
   -2.4930    1.2250    0.0200 C   0  0  0  0  0  0  0  0  0  0  0  0
   -1.3060    1.9360    0.0190 C   0  0  0  0  0  0  0  0  0  0  0  0
   -1.3210    3.3200    0.0320 C   0  0  0  0  0  0  0  0  0  0  0  0
   -2.5220    4.0000    0.0360 C   0  0  0  0  0  0  0  0  0  0  0  0
   -0.0140    1.2140    0.0090 N   0  0  0  0  0  0  0  0  0  0  0  0
    0.0020   -0.0040    0.0020 O   0  0  0  0  0  0  0  0  0  0  0  0
    1.0320    1.8370    0.0020 O   0  0  0  0  0  0  0  0  0  0  0  0
   -4.9370    8.0740    0.0770 O   0  0  0  0  0  0  0  0  0  0  0  0
   -8.6020    7.6300    0.7630 C   0  0  0  0  0  0  0  0  0  0  0  0
   -8.1010   10.3040    0.6990 H   0  0  0  0  0  0  0  0  0  0  0  0
   -7.1700    9.5730    2.0290 H   0  0  0  0  0  0  0  0  0  0  0  0
   -6.3260   10.2110    0.5970 H   0  0  0  0  0  0  0  0  0  0  0  0
   -8.1580    8.1160   -3.7260 H   0  0  0  0  0  0  0  0  0  0  0  0
   -7.9050    5.8330   -4.8960 H   0  0  0  0  0  0  0  0  0  0  0  0
   -4.1980    5.8540    0.0550 H   0  0  0  0  0  0  0  0  0  0  0  0
   -4.6260    1.3360    0.0320 H   0  0  0  0  0  0  0  0  0  0  0  0
   -2.4740    0.1460    0.0150 H   0  0  0  0  0  0  0  0  0  0  0  0
   -0.3910    3.8690    0.0350 H   0  0  0  0  0  0  0  0  0  0  0  0
   -2.5320    5.0790    0.0420 H   0  0  0  0  0  0  0  0  0  0  0  0
   -4.1260    7.5800    0.2570 H   0  0  0  0  0  0  0  0  0  0  0  0
   -8.6860    6.6560    0.2800 H   0  0  0  0  0  0  0  0  0  0  0  0
   -8.5490    7.4960    1.8430 H   0  0  0  0  0  0  0  0  0  0  0  0
   -9.4740    8.2340    0.5140 H   0  0  0  0  0  0  0  0  0  0  0  0
  1  2  1  0  0  0  0
  1 27  1  0  0  0  0
  1 28  1  0  0  0  0
  1 29  1  0  0  0  0
  2  3  1  0  0  0  0
  2 12  1  0  0  0  0
  2 26  1  0  0  0  0
  3  4  1  1  0  0  0
  3  5  1  0  0  0  0
  3 25  1  0  0  0  0
  5  6  1  1  0  0  0
  5  7  1  0  0  0  0
  5 13  1  0  0  0  0
  7  8  2  0  0  0  0
  7 11  1  0  0  0  0
  8  9  1  0  0  0  0
  8 12  1  0  0  0  0
  9 10  2  0  0  0  0
  9 30  1  0  0  0  0
 10 11  1  0  0  0  0
 10 31  1  0  0  0  0
 13 14  1  0  0  0  0
 13 32  1  0  0  0  0
 14 15  2  0  0  0  0
 14 16  1  0  0  0  0
 16 17  2  0  0  0  0
 16 21  1  0  0  0  0
 17 18  1  0  0  0  0
 17 33  1  0  0  0  0
 18 19  2  0  0  0  0
 18 34  1  0  0  0  0
 19 20  1  0  0  0  0
 19 22  1  0  0  0  0
 20 21  2  0  0  0  0
 20 35  1  0  0  0  0
 21 36  1  0  0  0  0
 22 23  2  0  0  0  0
 22 24  2  0  0  0  0
 25 37  1  0  0  0  0
 26 38  1  0  0  0  0
 26 39  1  0  0  0  0
 26 40  1  0  0  0  0
M  END
$$$$
