ZINC00003491
 OpenBabel12132116283D

 32 35  0  0  0  0  0  0  0  0999 V2000
   -0.1590   -4.5250    2.3180 C   0  0  0  0  0  0  0  0  0  0  0  0
    0.9540   -4.9910    1.5520 O   0  0  0  0  0  0  0  0  0  0  0  0
    1.5960   -4.0800    0.7820 C   0  0  0  0  0  0  0  0  0  0  0  0
    1.1780   -2.7620    0.7590 C   0  0  0  0  0  0  0  0  0  0  0  0
    1.8060   -1.7800   -0.0260 C   0  0  0  0  0  0  0  0  0  0  0  0
    2.9100   -2.1300   -0.8170 C   0  0  0  0  0  0  0  0  0  0  0  0
    3.3200   -3.4720   -0.7740 C   0  0  0  0  0  0  0  0  0  0  0  0
    2.7060   -4.4600   -0.0060 C   0  0  0  0  0  0  0  0  0  0  0  0
    3.2450   -5.7540   -0.0790 C   0  0  0  0  0  0  0  0  0  0  0  0
    4.3390   -5.9660   -0.8980 C   0  0  0  0  0  0  0  0  0  0  0  0
    4.9280   -4.9560   -1.6530 C   0  0  0  0  0  0  0  0  0  0  0  0
    4.4190   -3.6690   -1.6030 C   0  0  0  0  0  0  0  0  0  0  0  0
    4.7120   -2.4400   -2.1810 N   0  0  0  0  0  0  0  0  0  0  0  0
    3.8400   -1.4950   -1.7420 C   0  0  0  0  0  0  0  0  0  0  0  0
    3.8360   -0.3200   -2.0660 O   0  0  0  0  0  0  0  0  0  0  0  0
    2.7080   -6.7690    0.6340 F   0  0  0  0  0  0  0  0  0  0  0  0
    1.3120   -0.3920   -0.0130 C   0  0  0  0  0  0  0  0  0  0  0  0
    0.0020   -0.0040    0.0020 C   0  0  0  0  0  0  0  0  0  0  0  0
   -0.0170    1.3970    0.0100 C   0  0  0  0  0  0  0  0  0  0  0  0
    1.2660    1.8270    0.0000 C   0  0  0  0  0  0  0  0  0  0  0  0
    2.0860    0.7420   -0.0140 N   0  0  0  0  0  0  0  0  0  0  0  0
    3.0560    0.7660   -0.0240 H   0  0  0  0  0  0  0  0  0  0  0  0
    0.1720   -3.7450    3.0020 H   0  0  0  0  0  0  0  0  0  0  0  0
   -0.9180   -4.1220    1.6470 H   0  0  0  0  0  0  0  0  0  0  0  0
   -0.5800   -5.3530    2.8870 H   0  0  0  0  0  0  0  0  0  0  0  0
    0.3320   -2.4770    1.3660 H   0  0  0  0  0  0  0  0  0  0  0  0
    4.7550   -6.9610   -0.9550 H   0  0  0  0  0  0  0  0  0  0  0  0
    5.7810   -5.1750   -2.2780 H   0  0  0  0  0  0  0  0  0  0  0  0
    5.4360   -2.2800   -2.8070 H   0  0  0  0  0  0  0  0  0  0  0  0
   -0.8590   -0.6560    0.0070 H   0  0  0  0  0  0  0  0  0  0  0  0
   -0.8980    2.0220    0.0180 H   0  0  0  0  0  0  0  0  0  0  0  0
    1.5850    2.8590    0.0020 H   0  0  0  0  0  0  0  0  0  0  0  0
  1  2  1  0  0  0  0
  1 23  1  0  0  0  0
  1 24  1  0  0  0  0
  1 25  1  0  0  0  0
  2  3  1  0  0  0  0
  3  4  2  0  0  0  0
  3  8  1  0  0  0  0
  4  5  1  0  0  0  0
  4 26  1  0  0  0  0
  5  6  2  0  0  0  0
  5 17  1  0  0  0  0
  6  7  1  0  0  0  0
  6 14  1  0  0  0  0
  7  8  2  0  0  0  0
  7 12  1  0  0  0  0
  8  9  1  0  0  0  0
  9 10  2  0  0  0  0
  9 16  1  0  0  0  0
 10 11  1  0  0  0  0
 10 27  1  0  0  0  0
 11 12  2  0  0  0  0
 11 28  1  0  0  0  0
 12 13  1  0  0  0  0
 13 14  1  0  0  0  0
 13 29  1  0  0  0  0
 14 15  2  0  0  0  0
 17 18  2  0  0  0  0
 17 21  1  0  0  0  0
 18 19  1  0  0  0  0
 18 30  1  0  0  0  0
 19 20  2  0  0  0  0
 19 31  1  0  0  0  0
 20 21  1  0  0  0  0
 20 32  1  0  0  0  0
 21 22  1  0  0  0  0
M  END
$$$$
