ZINC00023543
 OpenBabel12132116283D

 35 37  0  0  0  0  0  0  0  0999 V2000
    2.8010    3.4360   -0.0060 C   0  0  0  0  0  0  0  0  0  0  0  0
    1.4400    3.3430    0.0060 N   0  0  0  0  0  0  0  0  0  0  0  0
    0.7950    4.1070    0.0170 H   0  0  0  0  0  0  0  0  0  0  0  0
    1.1190    2.0090    0.0020 C   0  0  0  0  0  0  0  0  0  0  0  0
    2.3420    1.3160   -0.0130 C   0  0  0  0  0  0  0  0  0  0  0  0
    3.3280    2.2470   -0.0180 N   0  0  0  0  0  0  0  0  0  0  0  0
    2.3120   -0.0860   -0.0210 C   0  0  0  0  0  0  0  0  0  0  0  0
    1.1340   -0.6970   -0.0130 N   0  0  0  0  0  0  0  0  0  0  0  0
    0.0020   -0.0040    0.0020 C   0  0  0  0  0  0  0  0  0  0  0  0
   -0.0160    1.3190    0.0090 N   0  0  0  0  0  0  0  0  0  0  0  0
   -1.2020   -0.6900    0.0100 N   0  0  0  0  0  0  0  0  0  0  0  0
    3.4620   -0.8030   -0.0370 O   0  0  0  0  0  0  0  0  0  0  0  0
    3.3390   -2.2260   -0.0440 C   0  0  0  0  0  0  0  0  0  0  0  0
    4.7320   -2.8580   -0.0620 C   0  0  0  0  0  0  0  0  0  0  0  0
    5.4360   -2.5060   -1.3740 C   0  0  0  0  0  0  0  0  0  0  0  0
    6.8290   -3.1380   -1.3920 C   0  0  0  0  0  0  0  0  0  0  0  0
    6.7010   -4.6580   -1.2740 C   0  0  0  0  0  0  0  0  0  0  0  0
    5.9980   -5.0100    0.0390 C   0  0  0  0  0  0  0  0  0  0  0  0
    4.6040   -4.3780    0.0560 C   0  0  0  0  0  0  0  0  0  0  0  0
    3.3590    4.3610   -0.0060 H   0  0  0  0  0  0  0  0  0  0  0  0
   -2.0390   -0.2000    0.0200 H   0  0  0  0  0  0  0  0  0  0  0  0
   -1.2070   -1.6600    0.0050 H   0  0  0  0  0  0  0  0  0  0  0  0
    2.8050   -2.5500    0.8490 H   0  0  0  0  0  0  0  0  0  0  0  0
    2.7870   -2.5390   -0.9300 H   0  0  0  0  0  0  0  0  0  0  0  0
    5.3150   -2.4770    0.7770 H   0  0  0  0  0  0  0  0  0  0  0  0
    4.8530   -2.8880   -2.2120 H   0  0  0  0  0  0  0  0  0  0  0  0
    5.5270   -1.4230   -1.4580 H   0  0  0  0  0  0  0  0  0  0  0  0
    7.4120   -2.7560   -0.5530 H   0  0  0  0  0  0  0  0  0  0  0  0
    7.3300   -2.8860   -2.3260 H   0  0  0  0  0  0  0  0  0  0  0  0
    7.6940   -5.1080   -1.2860 H   0  0  0  0  0  0  0  0  0  0  0  0
    6.1180   -5.0390   -2.1120 H   0  0  0  0  0  0  0  0  0  0  0  0
    6.5800   -4.6280    0.8770 H   0  0  0  0  0  0  0  0  0  0  0  0
    5.9070   -6.0930    0.1220 H   0  0  0  0  0  0  0  0  0  0  0  0
    4.1030   -4.6300    0.9910 H   0  0  0  0  0  0  0  0  0  0  0  0
    4.0220   -4.7600   -0.7820 H   0  0  0  0  0  0  0  0  0  0  0  0
  1  2  1  0  0  0  0
  1  6  2  0  0  0  0
  1 20  1  0  0  0  0
  2  3  1  0  0  0  0
  2  4  1  0  0  0  0
  4  5  2  0  0  0  0
  4 10  1  0  0  0  0
  5  6  1  0  0  0  0
  5  7  1  0  0  0  0
  7  8  2  0  0  0  0
  7 12  1  0  0  0  0
  8  9  1  0  0  0  0
  9 10  2  0  0  0  0
  9 11  1  0  0  0  0
 11 21  1  0  0  0  0
 11 22  1  0  0  0  0
 12 13  1  0  0  0  0
 13 14  1  0  0  0  0
 13 23  1  0  0  0  0
 13 24  1  0  0  0  0
 14 15  1  0  0  0  0
 14 19  1  0  0  0  0
 14 25  1  0  0  0  0
 15 16  1  0  0  0  0
 15 26  1  0  0  0  0
 15 27  1  0  0  0  0
 16 17  1  0  0  0  0
 16 28  1  0  0  0  0
 16 29  1  0  0  0  0
 17 18  1  0  0  0  0
 17 30  1  0  0  0  0
 17 31  1  0  0  0  0
 18 19  1  0  0  0  0
 18 32  1  0  0  0  0
 18 33  1  0  0  0  0
 19 34  1  0  0  0  0
 19 35  1  0  0  0  0
M  END
$$$$
