
 OpenBabel03212214523D

 19 20  0  0  0  0  0  0  0  0999 V2000
    0.3845    0.0634    0.2443 O   0  0  0  0  0  0  0  0  0  0  0  0
    0.0091   -0.4242   -0.9793 C   0  0  0  0  0  0  0  0  0  0  0  0
    0.4783   -1.6084   -1.5500 C   0  0  0  0  0  0  0  0  0  0  0  0
    0.0393   -2.0375   -2.8028 C   0  0  0  0  0  0  0  0  0  0  0  0
   -0.9192   -1.2764   -3.4807 C   0  0  0  0  0  0  0  0  0  0  0  0
   -1.3826   -0.0780   -2.9250 C   0  0  0  0  0  0  0  0  0  0  0  0
   -0.9159    0.3474   -1.6837 C   0  0  0  0  0  0  0  0  0  0  0  0
    0.5190   -3.2238   -3.4076 N   0  0  0  0  0  0  0  0  0  0  0  0
    1.6483   -3.9309   -3.0210 C   0  0  0  0  0  0  0  0  0  0  0  0
    2.4532   -3.5896   -2.1541 O   0  0  0  0  0  0  0  0  0  0  0  0
    1.8681   -5.2244   -3.7922 C   0  0  0  0  0  0  0  0  0  0  0  0
    1.9640   -6.6332   -2.6366 S   0  0  0  0  0  0  0  0  0  0  0  0
    0.3979   -6.5370   -1.9261 C   0  0  0  0  0  0  0  0  0  0  0  0
   -0.7125   -6.1788   -2.5216 N   0  0  0  0  0  0  0  0  0  0  0  0
   -1.6891   -6.2264   -1.5544 N   0  0  0  0  0  0  0  0  0  0  0  0
   -1.1843   -6.6041   -0.3861 N   0  0  0  0  0  0  0  0  0  0  0  0
    0.1267   -6.7990   -0.6144 N   0  0  0  0  0  0  0  0  0  0  0  0
    1.0077   -7.1846    0.4505 C   0  0  0  0  0  0  0  0  0  0  0  0
    1.3268   -0.7292    0.9702 C   0  0  0  0  0  0  0  0  0  0  0  0
  1  2  1  0  0  0  0
  1 19  1  0  0  0  0
  2  3  1  0  0  0  0
  2  7  2  0  0  0  0
  3  4  2  0  0  0  0
  4  5  1  0  0  0  0
  4  8  1  0  0  0  0
  5  6  2  0  0  0  0
  6  7  1  0  0  0  0
  8  9  1  0  0  0  0
  9 10  2  0  0  0  0
  9 11  1  0  0  0  0
 11 12  1  0  0  0  0
 12 13  1  0  0  0  0
 13 14  2  0  0  0  0
 13 17  1  0  0  0  0
 14 15  1  0  0  0  0
 15 16  2  0  0  0  0
 16 17  1  0  0  0  0
 17 18  1  0  0  0  0
M  END
$$$$
