
 OpenBabel03212214523D

 14 15  0  0  0  0  0  0  0  0999 V2000
    0.9951   -0.1403   -0.3012 O   0  0  0  0  0  0  0  0  0  0  0  0
    2.2203   -0.0041   -0.3344 C   0  0  0  0  0  0  0  0  0  0  0  0
    2.8918    1.1237   -0.7484 N   0  0  0  0  0  0  0  0  0  0  0  0
    2.2400    2.2217   -1.2538 C   0  0  0  0  0  0  0  0  0  0  0  0
    2.8056    2.8835   -2.2616 N   0  0  0  0  0  0  0  0  0  0  0  0
    1.8786    3.7946   -2.5936 N   0  0  0  0  0  0  0  0  0  0  0  0
    0.8530    3.8798   -1.6967 C   0  0  0  0  0  0  0  0  0  0  0  0
    1.0281    2.8179   -0.8366 C   0  0  0  0  0  0  0  0  0  0  0  0
   -0.2115    4.9532   -1.7201 C   0  0  0  0  0  0  0  0  0  0  0  0
   -0.6943    5.5062   -0.3947 C   0  0  0  0  0  0  0  0  0  0  0  0
   -1.6083    4.6685   -1.2227 C   0  0  0  0  0  0  0  0  0  0  0  0
    3.1433   -1.1368    0.0664 C   0  0  0  0  0  0  0  0  0  0  0  0
    3.7735   -0.9136    1.4368 C   0  0  0  0  0  0  0  0  0  0  0  0
    2.7337   -0.8056    2.5437 C   0  0  0  0  0  0  0  0  0  0  0  0
  1  2  2  0  0  0  0
  2  3  1  0  0  0  0
  2 12  1  0  0  0  0
  3  4  1  0  0  0  0
  4  5  2  0  0  0  0
  4  8  1  0  0  0  0
  5  6  1  0  0  0  0
  6  7  1  0  0  0  0
  7  8  2  0  0  0  0
  7  9  1  0  0  0  0
  9 10  1  0  0  0  0
  9 11  1  0  0  0  0
 10 11  1  0  0  0  0
 12 13  1  0  0  0  0
 13 14  1  0  0  0  0
M  END
$$$$
