
 OpenBabel03212214523D

 20 22  0  0  0  0  0  0  0  0999 V2000
    1.0598   -0.3470    0.2927 O   0  0  0  0  0  0  0  0  0  0  0  0
    2.2522   -0.1196    0.1243 C   0  0  0  0  0  0  0  0  0  0  0  0
    2.9162    1.0437    0.4446 N   0  0  0  0  0  0  0  0  0  0  0  0
    2.2835    2.1056    1.0448 C   0  0  0  0  0  0  0  0  0  0  0  0
    2.5473    3.3443    0.6237 N   0  0  0  0  0  0  0  0  0  0  0  0
    1.7007    4.1058    1.3375 N   0  0  0  0  0  0  0  0  0  0  0  0
    1.0752    3.4261    2.3424 C   0  0  0  0  0  0  0  0  0  0  0  0
    1.3925    2.1015    2.1448 C   0  0  0  0  0  0  0  0  0  0  0  0
    0.2205    4.0683    3.4164 C   0  0  0  0  0  0  0  0  0  0  0  0
    0.3009    3.5184    4.8248 C   0  0  0  0  0  0  0  0  0  0  0  0
   -0.9302    3.2950    4.0171 C   0  0  0  0  0  0  0  0  0  0  0  0
    3.0906   -1.1424   -0.5565 C   0  0  0  0  0  0  0  0  0  0  0  0
    2.5616   -1.8712   -1.6300 C   0  0  0  0  0  0  0  0  0  0  0  0
    3.3132   -2.8915   -2.2277 C   0  0  0  0  0  0  0  0  0  0  0  0
    4.5909   -3.1929   -1.7409 C   0  0  0  0  0  0  0  0  0  0  0  0
    5.1253   -2.4440   -0.6829 C   0  0  0  0  0  0  0  0  0  0  0  0
    4.3787   -1.4244   -0.0872 C   0  0  0  0  0  0  0  0  0  0  0  0
    5.4186   -4.2876   -2.3091 C   0  0  0  0  0  0  0  0  0  0  0  0
    6.6439   -4.2665   -2.2248 O   0  0  0  0  0  0  0  0  0  0  0  0
    4.7727   -5.3444   -2.8797 N   0  0  0  0  0  0  0  0  0  0  0  0
  1  2  2  0  0  0  0
  2  3  1  0  0  0  0
  2 12  1  0  0  0  0
  3  4  1  0  0  0  0
  4  5  2  0  0  0  0
  4  8  1  0  0  0  0
  5  6  1  0  0  0  0
  6  7  1  0  0  0  0
  7  8  2  0  0  0  0
  7  9  1  0  0  0  0
  9 10  1  0  0  0  0
  9 11  1  0  0  0  0
 10 11  1  0  0  0  0
 12 13  1  0  0  0  0
 12 17  2  0  0  0  0
 13 14  2  0  0  0  0
 14 15  1  0  0  0  0
 15 16  2  0  0  0  0
 15 18  1  0  0  0  0
 16 17  1  0  0  0  0
 18 19  2  0  0  0  0
 18 20  1  0  0  0  0
M  END
$$$$
