complex.gro
  PyMOL2.5          3D                             0

 25 28  0  0  0  0  0  0  0  0999 V2000
  -13.3901  206.0398  111.0397 C   0  0  0  0  0  0  0  0  0  0  0  0
  -13.5801  206.5398  109.7697 C   0  0  0  0  0  0  0  0  0  0  0  0
  -12.5001  207.1798  109.2197 C   0  0  0  0  0  0  0  0  0  0  0  0
  -11.3201  207.3098  109.8497 N   0  0  0  0  0  0  0  0  0  0  0  0
  -11.2001  206.7798  111.0797 C   0  0  0  0  0  0  0  0  0  0  0  0
  -12.2101  206.1398  111.6897 N   0  0  0  0  0  0  0  0  0  0  0  0
  -15.6001  203.7798  112.9497 N   0  0  0  0  0  0  0  0  0  0  0  0
  -14.4101  204.1298  112.4497 C   0  0  0  0  0  0  0  0  0  0  0  0
  -14.4601  205.3398  111.7197 C   0  0  0  0  0  0  0  0  0  0  0  0
  -16.4201  204.7798  112.5797 N   0  0  0  0  0  0  0  0  0  0  0  0
  -15.7701  205.7598  111.8397 C   0  0  0  0  0  0  0  0  0  0  0  0
  -16.5401  206.8798  111.4497 C   0  0  0  0  0  0  0  0  0  0  0  0
  -17.8401  206.9298  111.7697 C   0  0  0  0  0  0  0  0  0  0  0  0
  -18.3901  205.7798  112.5297 C   0  0  0  0  0  0  0  0  0  0  0  0
  -17.7301  204.7398  112.9297 N   0  0  0  0  0  0  0  0  0  0  0  0
   -9.6901  207.4297  113.0497 C   0  0  0  0  0  0  0  0  0  0  0  0
   -8.5001  208.1297  113.2897 C   0  0  0  0  0  0  0  0  0  0  0  0
   -8.2301  208.6597  114.5597 C   0  0  0  0  0  0  0  0  0  0  0  0
   -9.1401  208.4997  115.6097 C   0  0  0  0  0  0  0  0  0  0  0  0
  -10.3201  207.8097  115.3797 C   0  0  0  0  0  0  0  0  0  0  0  0
  -10.5901  207.2797  114.1197 C   0  0  0  0  0  0  0  0  0  0  0  0
  -10.0201  206.8698  111.8097 N   0  0  0  0  0  0  0  0  0  0  0  0
   -6.9801  209.3897  114.7897 N   0  0  0  0  0  0  0  0  0  0  0  0
   -7.0001  210.3197  115.6097 O   0  0  0  0  0  0  0  0  0  0  0  0
   -5.9801  209.0297  114.1497 O   0  0  0  0  0  0  0  0  0  0  0  0
  1  2  1  0  0  0  0
  1  6  1  0  0  0  0
  1  9  1  0  0  0  0
  2  3  1  0  0  0  0
  3  4  1  0  0  0  0
  4  5  1  0  0  0  0
  5  6  1  0  0  0  0
  5 22  1  0  0  0  0
  7  8  1  0  0  0  0
  7 10  1  0  0  0  0
  8  9  1  0  0  0  0
  9 11  1  0  0  0  0
 10 11  1  0  0  0  0
 10 15  1  0  0  0  0
 11 12  1  0  0  0  0
 12 13  1  0  0  0  0
 13 14  1  0  0  0  0
 14 15  1  0  0  0  0
 16 17  1  0  0  0  0
 16 21  1  0  0  0  0
 16 22  1  0  0  0  0
 17 18  1  0  0  0  0
 18 19  1  0  0  0  0
 18 23  1  0  0  0  0
 19 20  1  0  0  0  0
 20 21  1  0  0  0  0
 23 24  1  0  0  0  0
 23 25  1  0  0  0  0
M  END
$$$$
