step2_200_2000_5.0_85083.xyz.gro
  PyMOL2.5          3D                             0

 25 28  0  0  0  0  0  0  0  0999 V2000
  -12.8355  207.4692  111.9374 C   0  0  0  0  0  0  0  0  0  0  0  0
  -12.8258  207.7195  110.5675 C   0  0  0  0  0  0  0  0  0  0  0  0
  -11.6159  208.1395  110.0273 C   0  0  0  0  0  0  0  0  0  0  0  0
  -10.5157  208.3393  110.7871 N   0  0  0  0  0  0  0  0  0  0  0  0
  -10.6254  208.0990  112.1171 C   0  0  0  0  0  0  0  0  0  0  0  0
  -11.7353  207.6190  112.7072 N   0  0  0  0  0  0  0  0  0  0  0  0
  -15.4052  205.4690  114.1076 N   0  0  0  0  0  0  0  0  0  0  0  0
  -14.0552  205.9289  113.8874 C   0  0  0  0  0  0  0  0  0  0  0  0
  -14.0054  206.9492  112.6276 C   0  0  0  0  0  0  0  0  0  0  0  0
  -16.2254  206.1693  113.0479 N   0  0  0  0  0  0  0  0  0  0  0  0
  -15.4155  207.0794  112.1379 C   0  0  0  0  0  0  0  0  0  0  0  0
  -16.1657  207.8097  111.1983 C   0  0  0  0  0  0  0  0  0  0  0  0
  -17.4957  207.6098  111.1285 C   0  0  0  0  0  0  0  0  0  0  0  0
  -18.1556  206.6597  112.0985 C   0  0  0  0  0  0  0  0  0  0  0  0
  -17.5554  205.9694  113.0182 N   0  0  0  0  0  0  0  0  0  0  0  0
   -9.0950  208.0884  114.1567 C   0  0  0  0  0  0  0  0  0  0  0  0
   -7.7349  207.9882  114.4564 C   0  0  0  0  0  0  0  0  0  0  0  0
   -7.2746  207.6379  115.7462 C   0  0  0  0  0  0  0  0  0  0  0  0
   -8.2645  207.3478  116.7264 C   0  0  0  0  0  0  0  0  0  0  0  0
   -9.6145  207.4780  116.4567 C   0  0  0  0  0  0  0  0  0  0  0  0
  -10.0248  207.8583  115.1769 C   0  0  0  0  0  0  0  0  0  0  0  0
   -9.4752  208.3787  112.8069 N   0  0  0  0  0  0  0  0  0  0  0  0
   -5.9146  207.5377  116.0459 N   0  0  0  0  0  0  0  0  0  0  0  0
   -4.9747  208.3378  115.1758 O   0  0  0  0  0  0  0  0  0  0  0  0
   -5.5542  207.7074  117.5158 O   0  0  0  0  0  0  0  0  0  0  0  0
  1  2  1  0  0  0  0
  1  6  1  0  0  0  0
  1  9  1  0  0  0  0
  2  3  1  0  0  0  0
  3  4  1  0  0  0  0
  4  5  1  0  0  0  0
  5  6  1  0  0  0  0
  5 22  1  0  0  0  0
  7  8  1  0  0  0  0
  7 10  1  0  0  0  0
  8  9  1  0  0  0  0
  9 11  1  0  0  0  0
 10 11  1  0  0  0  0
 10 15  1  0  0  0  0
 11 12  1  0  0  0  0
 12 13  1  0  0  0  0
 13 14  1  0  0  0  0
 14 15  1  0  0  0  0
 16 17  1  0  0  0  0
 16 21  1  0  0  0  0
 16 22  1  0  0  0  0
 17 18  1  0  0  0  0
 18 19  1  0  0  0  0
 18 23  1  0  0  0  0
 19 20  1  0  0  0  0
 20 21  1  0  0  0  0
 23 24  1  0  0  0  0
 23 25  1  0  0  0  0
M  END
$$$$
