step2_200_2000_5.0_23287.xyz.gro
  PyMOL2.5          3D                             0

 25 28  0  0  0  0  0  0  0  0999 V2000
  -11.9958  204.9648  112.2728 C   0  0  0  0  0  0  0  0  0  0  0  0
  -11.5756  205.6148  111.1128 C   0  0  0  0  0  0  0  0  0  0  0  0
  -10.2454  206.0341  111.0928 C   0  0  0  0  0  0  0  0  0  0  0  0
   -9.4054  205.8435  112.1427 N   0  0  0  0  0  0  0  0  0  0  0  0
   -9.9156  205.2635  113.2526 C   0  0  0  0  0  0  0  0  0  0  0  0
  -11.1758  204.7842  113.3326 N   0  0  0  0  0  0  0  0  0  0  0  0
  -15.0966  203.0961  113.6027 N   0  0  0  0  0  0  0  0  0  0  0  0
  -13.6767  203.0854  113.2926 C   0  0  0  0  0  0  0  0  0  0  0  0
  -13.2961  204.3754  112.3728 C   0  0  0  0  0  0  0  0  0  0  0  0
  -15.6361  204.3465  112.9130 N   0  0  0  0  0  0  0  0  0  0  0  0
  -14.5658  205.1261  112.1631 C   0  0  0  0  0  0  0  0  0  0  0  0
  -15.0252  206.2765  111.4933 C   0  0  0  0  0  0  0  0  0  0  0  0
  -16.3551  206.5172  111.5035 C   0  0  0  0  0  0  0  0  0  0  0  0
  -17.2855  205.6375  112.2934 C   0  0  0  0  0  0  0  0  0  0  0  0
  -16.9359  204.6272  113.0432 N   0  0  0  0  0  0  0  0  0  0  0  0
   -9.3753  205.2128  115.7125 C   0  0  0  0  0  0  0  0  0  0  0  0
   -8.5349  205.9022  116.5926 C   0  0  0  0  0  0  0  0  0  0  0  0
   -8.8247  206.0420  117.9526 C   0  0  0  0  0  0  0  0  0  0  0  0
   -9.9750  205.3925  118.4526 C   0  0  0  0  0  0  0  0  0  0  0  0
  -10.7754  204.6231  117.6126 C   0  0  0  0  0  0  0  0  0  0  0  0
  -10.4656  204.5332  116.2625 C   0  0  0  0  0  0  0  0  0  0  0  0
   -9.0455  205.2329  114.3425 N   0  0  0  0  0  0  0  0  0  0  0  0
   -8.0142  206.8315  118.8027 N   0  0  0  0  0  0  0  0  0  0  0  0
   -8.5638  207.3715  120.1029 O   0  0  0  0  0  0  0  0  0  0  0  0
   -6.7839  207.5509  118.2827 O   0  0  0  0  0  0  0  0  0  0  0  0
  1  2  1  0  0  0  0
  1  6  1  0  0  0  0
  1  9  1  0  0  0  0
  2  3  1  0  0  0  0
  3  4  1  0  0  0  0
  4  5  1  0  0  0  0
  5  6  1  0  0  0  0
  5 22  1  0  0  0  0
  7  8  1  0  0  0  0
  7 10  1  0  0  0  0
  8  9  1  0  0  0  0
  9 11  1  0  0  0  0
 10 11  1  0  0  0  0
 10 15  1  0  0  0  0
 11 12  1  0  0  0  0
 12 13  1  0  0  0  0
 13 14  1  0  0  0  0
 14 15  1  0  0  0  0
 16 17  1  0  0  0  0
 16 21  1  0  0  0  0
 16 22  1  0  0  0  0
 17 18  1  0  0  0  0
 18 19  1  0  0  0  0
 18 23  1  0  0  0  0
 19 20  1  0  0  0  0
 20 21  1  0  0  0  0
 23 24  1  0  0  0  0
 23 25  1  0  0  0  0
M  END
$$$$
