step2_200_2000_5.0_86498.xyz.gro
  PyMOL2.5          3D                             0

 25 28  0  0  0  0  0  0  0  0999 V2000
  -12.4434  207.0969  111.4394 C   0  0  0  0  0  0  0  0  0  0  0  0
  -12.5933  207.4670  110.0994 C   0  0  0  0  0  0  0  0  0  0  0  0
  -11.5632  208.2368  109.5694 C   0  0  0  0  0  0  0  0  0  0  0  0
  -10.4631  208.6066  110.2595 N   0  0  0  0  0  0  0  0  0  0  0  0
  -10.4232  208.2366  111.5795 C   0  0  0  0  0  0  0  0  0  0  0  0
  -11.3534  207.4367  112.1494 N   0  0  0  0  0  0  0  0  0  0  0  0
  -14.5739  204.9372  113.9292 N   0  0  0  0  0  0  0  0  0  0  0  0
  -13.3238  205.5570  113.5493 C   0  0  0  0  0  0  0  0  0  0  0  0
  -13.4936  206.3771  112.1593 C   0  0  0  0  0  0  0  0  0  0  0  0
  -15.5538  205.3674  112.8392 N   0  0  0  0  0  0  0  0  0  0  0  0
  -14.9236  206.2474  111.7893 C   0  0  0  0  0  0  0  0  0  0  0  0
  -15.8435  206.7876  110.8293 C   0  0  0  0  0  0  0  0  0  0  0  0
  -17.1435  206.4778  110.9892 C   0  0  0  0  0  0  0  0  0  0  0  0
  -17.6037  205.5378  112.0392 C   0  0  0  0  0  0  0  0  0  0  0  0
  -16.8438  204.9776  112.9592 N   0  0  0  0  0  0  0  0  0  0  0  0
   -9.4031  209.1563  113.7095 C   0  0  0  0  0  0  0  0  0  0  0  0
   -8.2131  209.5761  114.2896 C   0  0  0  0  0  0  0  0  0  0  0  0
   -8.1331  209.8460  115.6896 C   0  0  0  0  0  0  0  0  0  0  0  0
   -9.2931  209.6762  116.4496 C   0  0  0  0  0  0  0  0  0  0  0  0
  -10.5032  209.2664  115.8995 C   0  0  0  0  0  0  0  0  0  0  0  0
  -10.5332  208.9965  114.5195 C   0  0  0  0  0  0  0  0  0  0  0  0
   -9.4132  208.7864  112.3095 N   0  0  0  0  0  0  0  0  0  0  0  0
   -6.9230  210.2558  116.3096 N   0  0  0  0  0  0  0  0  0  0  0  0
   -6.7931  209.8357  117.7696 O   0  0  0  0  0  0  0  0  0  0  0  0
   -5.6330  210.1356  115.5597 O   0  0  0  0  0  0  0  0  0  0  0  0
  1  2  1  0  0  0  0
  1  6  1  0  0  0  0
  1  9  1  0  0  0  0
  2  3  1  0  0  0  0
  3  4  1  0  0  0  0
  4  5  1  0  0  0  0
  5  6  1  0  0  0  0
  5 22  1  0  0  0  0
  7  8  1  0  0  0  0
  7 10  1  0  0  0  0
  8  9  1  0  0  0  0
  9 11  1  0  0  0  0
 10 11  1  0  0  0  0
 10 15  1  0  0  0  0
 11 12  1  0  0  0  0
 12 13  1  0  0  0  0
 13 14  1  0  0  0  0
 14 15  1  0  0  0  0
 16 17  1  0  0  0  0
 16 21  1  0  0  0  0
 16 22  1  0  0  0  0
 17 18  1  0  0  0  0
 18 19  1  0  0  0  0
 18 23  1  0  0  0  0
 19 20  1  0  0  0  0
 20 21  1  0  0  0  0
 23 24  1  0  0  0  0
 23 25  1  0  0  0  0
M  END
$$$$
