step2_200_2000_5.0_85412.xyz.gro
  PyMOL2.5          3D                             0

 25 28  0  0  0  0  0  0  0  0999 V2000
  -12.6293  205.9170  111.5351 C   0  0  0  0  0  0  0  0  0  0  0  0
  -12.7105  206.2279  110.1854 C   0  0  0  0  0  0  0  0  0  0  0  0
  -11.6609  206.9682  109.6449 C   0  0  0  0  0  0  0  0  0  0  0  0
  -10.5702  207.3176  110.3542 N   0  0  0  0  0  0  0  0  0  0  0  0
  -10.5390  206.9467  111.6539 C   0  0  0  0  0  0  0  0  0  0  0  0
  -11.5385  206.2564  112.2743 N   0  0  0  0  0  0  0  0  0  0  0  0
  -14.9375  203.6658  113.7557 N   0  0  0  0  0  0  0  0  0  0  0  0
  -13.6676  204.3258  113.5350 C   0  0  0  0  0  0  0  0  0  0  0  0
  -13.7187  205.2567  112.2157 C   0  0  0  0  0  0  0  0  0  0  0  0
  -15.8384  204.1866  112.6369 N   0  0  0  0  0  0  0  0  0  0  0  0
  -15.1292  205.1572  111.7069 C   0  0  0  0  0  0  0  0  0  0  0  0
  -15.9500  205.7679  110.7280 C   0  0  0  0  0  0  0  0  0  0  0  0
  -17.2600  205.4680  110.7290 C   0  0  0  0  0  0  0  0  0  0  0  0
  -17.8093  204.4675  111.6989 C   0  0  0  0  0  0  0  0  0  0  0  0
  -17.1285  203.7968  112.5978 N   0  0  0  0  0  0  0  0  0  0  0  0
   -9.0272  207.2452  113.6827 C   0  0  0  0  0  0  0  0  0  0  0  0
   -8.2465  208.2347  114.2926 C   0  0  0  0  0  0  0  0  0  0  0  0
   -7.8753  208.1638  115.6523 C   0  0  0  0  0  0  0  0  0  0  0  0
   -8.2747  207.0233  116.3819 C   0  0  0  0  0  0  0  0  0  0  0  0
   -9.0654  206.0438  115.7919 C   0  0  0  0  0  0  0  0  0  0  0  0
   -9.4466  206.1647  114.4724 C   0  0  0  0  0  0  0  0  0  0  0  0
   -9.4284  207.4161  112.3532 N   0  0  0  0  0  0  0  0  0  0  0  0
   -7.1146  209.1933  116.2922 N   0  0  0  0  0  0  0  0  0  0  0  0
   -7.0932  209.1622  117.8122 O   0  0  0  0  0  0  0  0  0  0  0  0
   -7.3849  210.5836  115.8134 O   0  0  0  0  0  0  0  0  0  0  0  0
  1  2  1  0  0  0  0
  1  6  1  0  0  0  0
  1  9  1  0  0  0  0
  2  3  1  0  0  0  0
  3  4  1  0  0  0  0
  4  5  1  0  0  0  0
  5  6  1  0  0  0  0
  5 22  1  0  0  0  0
  7  8  1  0  0  0  0
  7 10  1  0  0  0  0
  8  9  1  0  0  0  0
  9 11  1  0  0  0  0
 10 11  1  0  0  0  0
 10 15  1  0  0  0  0
 11 12  1  0  0  0  0
 12 13  1  0  0  0  0
 13 14  1  0  0  0  0
 14 15  1  0  0  0  0
 16 17  1  0  0  0  0
 16 21  1  0  0  0  0
 16 22  1  0  0  0  0
 17 18  1  0  0  0  0
 18 19  1  0  0  0  0
 18 23  1  0  0  0  0
 19 20  1  0  0  0  0
 20 21  1  0  0  0  0
 23 24  1  0  0  0  0
 23 25  1  0  0  0  0
M  END
$$$$
