step2_200_2000_5.0_21878.xyz.gro
  PyMOL2.5          3D                             0

 25 28  0  0  0  0  0  0  0  0999 V2000
  -11.2721  205.7329  112.1357 C   0  0  0  0  0  0  0  0  0  0  0  0
  -10.9719  206.6127  111.0955 C   0  0  0  0  0  0  0  0  0  0  0  0
   -9.9317  207.5025  111.3354 C   0  0  0  0  0  0  0  0  0  0  0  0
   -9.2518  207.5326  112.5054 N   0  0  0  0  0  0  0  0  0  0  0  0
   -9.5920  206.6129  113.4256 C   0  0  0  0  0  0  0  0  0  0  0  0
  -10.5421  205.6830  113.2757 N   0  0  0  0  0  0  0  0  0  0  0  0
  -14.1025  203.1636  112.8261 N   0  0  0  0  0  0  0  0  0  0  0  0
  -12.6825  203.4333  112.7261 C   0  0  0  0  0  0  0  0  0  0  0  0
  -12.4222  204.8631  112.0058 C   0  0  0  0  0  0  0  0  0  0  0  0
  -14.7723  204.3936  112.2558 N   0  0  0  0  0  0  0  0  0  0  0  0
  -13.7921  205.4033  111.6956 C   0  0  0  0  0  0  0  0  0  0  0  0
  -14.3619  206.5332  111.0854 C   0  0  0  0  0  0  0  0  0  0  0  0
  -15.7019  206.6435  111.0853 C   0  0  0  0  0  0  0  0  0  0  0  0
  -16.5421  205.6138  111.7955 C   0  0  0  0  0  0  0  0  0  0  0  0
  -16.1323  204.4738  112.2457 N   0  0  0  0  0  0  0  0  0  0  0  0
   -8.7620  207.1732  115.6655 C   0  0  0  0  0  0  0  0  0  0  0  0
   -7.5619  207.7031  116.1454 C   0  0  0  0  0  0  0  0  0  0  0  0
   -7.5018  208.4133  117.3653 C   0  0  0  0  0  0  0  0  0  0  0  0
   -8.7018  208.5437  118.1052 C   0  0  0  0  0  0  0  0  0  0  0  0
   -9.9119  208.0438  117.6153 C   0  0  0  0  0  0  0  0  0  0  0  0
   -9.9420  207.3736  116.3954 C   0  0  0  0  0  0  0  0  0  0  0  0
   -8.7520  206.3930  114.4957 N   0  0  0  0  0  0  0  0  0  0  0  0
   -6.2917  209.0132  117.8252 N   0  0  0  0  0  0  0  0  0  0  0  0
   -5.9918  208.9835  119.3152 O   0  0  0  0  0  0  0  0  0  0  0  0
   -5.0018  208.5629  117.1854 O   0  0  0  0  0  0  0  0  0  0  0  0
  1  2  1  0  0  0  0
  1  6  1  0  0  0  0
  1  9  1  0  0  0  0
  2  3  1  0  0  0  0
  3  4  1  0  0  0  0
  4  5  1  0  0  0  0
  5  6  1  0  0  0  0
  5 22  1  0  0  0  0
  7  8  1  0  0  0  0
  7 10  1  0  0  0  0
  8  9  1  0  0  0  0
  9 11  1  0  0  0  0
 10 11  1  0  0  0  0
 10 15  1  0  0  0  0
 11 12  1  0  0  0  0
 12 13  1  0  0  0  0
 13 14  1  0  0  0  0
 14 15  1  0  0  0  0
 16 17  1  0  0  0  0
 16 21  1  0  0  0  0
 16 22  1  0  0  0  0
 17 18  1  0  0  0  0
 18 19  1  0  0  0  0
 18 23  1  0  0  0  0
 19 20  1  0  0  0  0
 20 21  1  0  0  0  0
 23 24  1  0  0  0  0
 23 25  1  0  0  0  0
M  END
$$$$
