step2_200_2000_5.0_4094.xyz.gro
  PyMOL2.5          3D                             0

 25 28  0  0  0  0  0  0  0  0999 V2000
  -11.9014  205.5891  111.3847 C   0  0  0  0  0  0  0  0  0  0  0  0
  -12.4113  206.5193  110.4749 C   0  0  0  0  0  0  0  0  0  0  0  0
  -11.6210  207.6292  110.2250 C   0  0  0  0  0  0  0  0  0  0  0  0
  -10.4210  207.8289  110.8451 N   0  0  0  0  0  0  0  0  0  0  0  0
  -10.0612  206.9287  111.7849 C   0  0  0  0  0  0  0  0  0  0  0  0
  -10.7214  205.7687  112.0248 N   0  0  0  0  0  0  0  0  0  0  0  0
  -13.3421  202.1891  112.6342 N   0  0  0  0  0  0  0  0  0  0  0  0
  -12.3919  202.8891  111.7943 C   0  0  0  0  0  0  0  0  0  0  0  0
  -12.7316  204.4792  111.7646 C   0  0  0  0  0  0  0  0  0  0  0  0
  -14.2519  203.2892  113.1844 N   0  0  0  0  0  0  0  0  0  0  0  0
  -13.9116  204.6592  112.6646 C   0  0  0  0  0  0  0  0  0  0  0  0
  -14.6814  205.7293  113.1747 C   0  0  0  0  0  0  0  0  0  0  0  0
  -15.6015  205.4393  114.1247 C   0  0  0  0  0  0  0  0  0  0  0  0
  -15.7417  204.0293  114.6245 C   0  0  0  0  0  0  0  0  0  0  0  0
  -15.1819  202.9593  114.1143 N   0  0  0  0  0  0  0  0  0  0  0  0
   -8.9211  207.3081  113.9850 C   0  0  0  0  0  0  0  0  0  0  0  0
   -8.1609  208.2779  114.6552 C   0  0  0  0  0  0  0  0  0  0  0  0
   -8.0109  208.2876  116.0652 C   0  0  0  0  0  0  0  0  0  0  0  0
   -8.6611  207.2676  116.7850 C   0  0  0  0  0  0  0  0  0  0  0  0
   -9.3713  206.2579  116.1448 C   0  0  0  0  0  0  0  0  0  0  0  0
   -9.4813  206.2781  114.7548 C   0  0  0  0  0  0  0  0  0  0  0  0
   -9.0111  207.3584  112.5750 N   0  0  0  0  0  0  0  0  0  0  0  0
   -7.2408  209.2674  116.7353 N   0  0  0  0  0  0  0  0  0  0  0  0
   -6.1107  209.8673  115.9354 O   0  0  0  0  0  0  0  0  0  0  0  0
   -6.7908  208.9371  118.1553 O   0  0  0  0  0  0  0  0  0  0  0  0
  1  2  1  0  0  0  0
  1  6  1  0  0  0  0
  1  9  1  0  0  0  0
  2  3  1  0  0  0  0
  3  4  1  0  0  0  0
  4  5  1  0  0  0  0
  5  6  1  0  0  0  0
  5 22  1  0  0  0  0
  7  8  1  0  0  0  0
  7 10  1  0  0  0  0
  8  9  1  0  0  0  0
  9 11  1  0  0  0  0
 10 11  1  0  0  0  0
 10 15  1  0  0  0  0
 11 12  1  0  0  0  0
 12 13  1  0  0  0  0
 13 14  1  0  0  0  0
 14 15  1  0  0  0  0
 16 17  1  0  0  0  0
 16 21  1  0  0  0  0
 16 22  1  0  0  0  0
 17 18  1  0  0  0  0
 18 19  1  0  0  0  0
 18 23  1  0  0  0  0
 19 20  1  0  0  0  0
 20 21  1  0  0  0  0
 23 24  1  0  0  0  0
 23 25  1  0  0  0  0
M  END
$$$$
