step2_200_2000_5.0_47873.xyz.gro
  PyMOL2.5          3D                             0

 25  9  0  0  0  0  0  0  0  0999 V2000
   -8.7138  214.5777  116.8630 C   0  0  0  0  0  0  0  0  0  0  0  0
  -10.1522  214.8201  117.0239 C   0  0  0  0  0  0  0  0  0  0  0  0
  -12.5055  225.2206  116.1077 C   0  0  0  0  0  0  0  0  0  0  0  0
  -11.2592  213.9451  114.7663 N   0  0  0  0  0  0  0  0  0  0  0  0
   -6.9933  208.2369  114.5161 C   0  0  0  0  0  0  0  0  0  0  0  0
  -11.3060  213.9326  115.2465 N   0  0  0  0  0  0  0  0  0  0  0  0
   -6.4479  199.9193  112.0458 N   0  0  0  0  0  0  0  0  0  0  0  0
   -4.6530  199.8510  112.8036 C   0  0  0  0  0  0  0  0  0  0  0  0
  -10.4731  194.5863  107.0124 C   0  0  0  0  0  0  0  0  0  0  0  0
   -1.3233  200.5652  112.5155 N   0  0  0  0  0  0  0  0  0  0  0  0
   -6.4186  198.6358  110.8584 C   0  0  0  0  0  0  0  0  0  0  0  0
   -5.7721  199.8079  108.4406 C   0  0  0  0  0  0  0  0  0  0  0  0
   -6.5519  200.3120  109.8086 C   0  0  0  0  0  0  0  0  0  0  0  0
   -5.4191  200.4074  110.1917 C   0  0  0  0  0  0  0  0  0  0  0  0
  -12.2118  201.9528  104.7751 N   0  0  0  0  0  0  0  0  0  0  0  0
  -12.8935  207.2794  125.3802 C   0  0  0  0  0  0  0  0  0  0  0  0
  -12.9532  207.5598  125.3321 C   0  0  0  0  0  0  0  0  0  0  0  0
  -10.4462  206.0070  128.4070 C   0  0  0  0  0  0  0  0  0  0  0  0
  -12.2382  211.9121  124.6417 C   0  0  0  0  0  0  0  0  0  0  0  0
   -7.4293  205.9581  123.4165 C   0  0  0  0  0  0  0  0  0  0  0  0
  -11.8528  205.7985  130.4952 C   0  0  0  0  0  0  0  0  0  0  0  0
  -21.6768  218.9603  118.0234 N   0  0  0  0  0  0  0  0  0  0  0  0
   -2.2164  203.4431  118.6378 N   0  0  0  0  0  0  0  0  0  0  0  0
   -8.6570  208.4636  122.9387 O   0  0  0  0  0  0  0  0  0  0  0  0
   -1.4362  218.8780  121.0891 O   0  0  0  0  0  0  0  0  0  0  0  0
  1  2  1  0  0  0  0
  4  6  1  0  0  0  0
  7  8  1  0  0  0  0
  7 11  1  0  0  0  0
 11 13  1  0  0  0  0
 12 13  1  0  0  0  0
 12 14  1  0  0  0  0
 13 14  1  0  0  0  0
 16 17  1  0  0  0  0
M  END
$$$$
