step2_200_2000_5.0_22633.xyz.gro
  PyMOL2.5          3D                             0

 25 28  0  0  0  0  0  0  0  0999 V2000
  -12.3075  206.7014  111.5154 C   0  0  0  0  0  0  0  0  0  0  0  0
  -12.4571  207.6816  110.5155 C   0  0  0  0  0  0  0  0  0  0  0  0
  -11.4165  208.5509  110.3553 C   0  0  0  0  0  0  0  0  0  0  0  0
  -10.2963  208.5500  111.1249 N   0  0  0  0  0  0  0  0  0  0  0  0
  -10.2567  207.5999  112.1148 C   0  0  0  0  0  0  0  0  0  0  0  0
  -11.1774  206.6405  112.2850 N   0  0  0  0  0  0  0  0  0  0  0  0
  -14.5793  203.7729  112.6757 N   0  0  0  0  0  0  0  0  0  0  0  0
  -13.2591  204.2420  112.2554 C   0  0  0  0  0  0  0  0  0  0  0  0
  -13.3381  205.7921  111.7656 C   0  0  0  0  0  0  0  0  0  0  0  0
  -15.4885  204.9936  112.5061 N   0  0  0  0  0  0  0  0  0  0  0  0
  -14.7778  206.2032  111.9460 C   0  0  0  0  0  0  0  0  0  0  0  0
  -15.5670  207.3537  111.7764 C   0  0  0  0  0  0  0  0  0  0  0  0
  -16.8870  207.2547  112.0367 C   0  0  0  0  0  0  0  0  0  0  0  0
  -17.4177  206.0350  112.7168 C   0  0  0  0  0  0  0  0  0  0  0  0
  -16.7885  204.9045  112.8765 N   0  0  0  0  0  0  0  0  0  0  0  0
   -9.1461  207.6088  114.3845 C   0  0  0  0  0  0  0  0  0  0  0  0
   -8.0655  208.1580  115.0743 C   0  0  0  0  0  0  0  0  0  0  0  0
   -7.9152  208.0177  116.4642 C   0  0  0  0  0  0  0  0  0  0  0  0
   -8.8855  207.2784  117.1644 C   0  0  0  0  0  0  0  0  0  0  0  0
   -9.9461  206.6692  116.4847 C   0  0  0  0  0  0  0  0  0  0  0  0
  -10.0564  206.8294  115.1147 C   0  0  0  0  0  0  0  0  0  0  0  0
   -9.1863  207.7990  112.9846 N   0  0  0  0  0  0  0  0  0  0  0  0
   -6.8245  208.6469  117.1540 N   0  0  0  0  0  0  0  0  0  0  0  0
   -5.5547  208.7560  116.3536 O   0  0  0  0  0  0  0  0  0  0  0  0
   -6.4945  208.1365  118.5438 O   0  0  0  0  0  0  0  0  0  0  0  0
  1  2  1  0  0  0  0
  1  6  1  0  0  0  0
  1  9  1  0  0  0  0
  2  3  1  0  0  0  0
  3  4  1  0  0  0  0
  4  5  1  0  0  0  0
  5  6  1  0  0  0  0
  5 22  1  0  0  0  0
  7  8  1  0  0  0  0
  7 10  1  0  0  0  0
  8  9  1  0  0  0  0
  9 11  1  0  0  0  0
 10 11  1  0  0  0  0
 10 15  1  0  0  0  0
 11 12  1  0  0  0  0
 12 13  1  0  0  0  0
 13 14  1  0  0  0  0
 14 15  1  0  0  0  0
 16 17  1  0  0  0  0
 16 21  1  0  0  0  0
 16 22  1  0  0  0  0
 17 18  1  0  0  0  0
 18 19  1  0  0  0  0
 18 23  1  0  0  0  0
 19 20  1  0  0  0  0
 20 21  1  0  0  0  0
 23 24  1  0  0  0  0
 23 25  1  0  0  0  0
M  END
$$$$
