data/FXA/cocry_dataset/1fjs_Z34_LIG.pdb
 OpenBabel03092320563D

 61 64  0  0  1  0  0  0  0  0999 V2000
    1.1806   -0.4736   -0.0708 C   0  0  2  0  0  0  0  0  0  0  0  0
    1.6770   -0.5284   -1.3573 F   0  0  0  0  0  0  0  0  0  0  0  0
    0.0484   -1.3321    0.0306 C   0  0  0  0  0  0  0  0  0  0  0  0
   -1.2262   -0.7339    0.0018 C   0  0  0  0  0  0  0  0  0  0  0  0
   -2.3245   -1.5016    0.0858 F   0  0  0  0  0  0  0  0  0  0  0  0
   -1.3612    0.6449   -0.1107 C   0  0  0  0  0  0  0  0  0  0  0  0
   -0.3195    1.4773    0.0452 N   0  0  0  0  0  4  0  0  0  0  0  0
    0.8939    0.8917    0.1876 C   0  0  0  0  0  0  0  0  0  0  0  0
    1.9729    1.6659    0.6234 O   0  0  0  0  0  0  0  0  0  0  0  0
    1.7247    2.7449    1.4496 C   0  0  0  0  0  0  0  0  0  0  0  0
    0.6883    2.7746    2.3881 C   0  0  0  0  0  0  0  0  0  0  0  0
    0.4636    3.9151    3.1677 C   0  0  0  0  0  0  0  0  0  0  0  0
    1.3246    5.0130    3.0651 C   0  0  0  0  0  0  0  0  0  0  0  0
    2.4074    4.9623    2.1826 C   0  0  0  0  0  0  0  0  0  0  0  0
    2.6034    3.8317    1.3835 C   0  0  0  0  0  0  0  0  0  0  0  0
    3.6666    3.7789    0.5246 O   0  0  0  0  0  0  0  0  0  0  0  0
   -0.7262    3.9419    4.0634 C   0  0  0  0  0  0  0  0  0  0  0  0
   -0.7610    4.6062    5.1737 N   0  0  0  0  0  0  0  0  0  0  0  0
   -1.8508    3.2505    3.7194 N   0  0  0  0  0  0  0  0  0  0  0  0
   -2.5812    1.2733   -0.2296 O   0  0  0  0  0  0  0  0  0  0  0  0
   -3.5464    0.7146   -1.0394 C   0  0  0  0  0  0  0  0  0  0  0  0
   -3.2804    0.0083   -2.2147 C   0  0  0  0  0  0  0  0  0  0  0  0
   -4.3327   -0.5242   -2.9565 C   0  0  0  0  0  0  0  0  0  0  0  0
   -5.6509   -0.3115   -2.5508 C   0  0  0  0  0  0  0  0  0  0  0  0
   -5.9428    0.3909   -1.3697 C   0  0  0  0  0  0  0  0  0  0  0  0
   -4.8699    0.9217   -0.6381 C   0  0  0  0  0  0  0  0  0  0  0  0
   -7.3139    0.6157   -0.8983 C   0  0  0  0  0  0  0  0  0  0  0  0
   -8.3901   -0.2466   -1.0006 N   0  0  0  0  0  0  0  0  0  0  0  0
   -8.4354   -1.5933   -1.5169 C   0  0  0  0  0  0  0  0  0  0  0  0
   -9.4845    0.3698   -0.4468 C   0  0  0  0  0  0  0  0  0  0  0  0
   -9.0227    1.5705    0.0223 C   0  0  0  0  0  0  0  0  0  0  0  0
   -7.6882    1.7053   -0.2436 N   0  0  0  0  0  0  0  0  0  0  0  0
    0.1914   -2.7210    0.1202 N   0  0  0  0  0  0  0  0  0  0  0  0
   -0.7302   -3.5404    0.9304 C   0  0  0  0  0  0  0  0  0  0  0  0
   -1.7465   -4.3326    0.0996 C   0  0  0  0  0  0  0  0  0  0  0  0
   -1.4608   -5.3106   -0.5810 O   0  0  0  0  0  0  0  0  0  0  0  0
   -3.0221   -3.8869    0.1962 O   0  0  0  0  0  0  0  0  0  0  0  0
    1.3473   -3.4169   -0.4425 C   0  0  0  0  0  0  0  0  0  0  0  0
    2.0547   -0.7863    0.5328 H   0  0  0  0  0  0  0  0  0  0  0  0
    0.0342    1.9175    2.5147 H   0  0  0  0  0  0  0  0  0  0  0  0
    1.1483    5.9152    3.6426 H   0  0  0  0  0  0  0  0  0  0  0  0
    3.0752    5.8169    2.1197 H   0  0  0  0  0  0  0  0  0  0  0  0
    4.1826    4.5973    0.6058 H   0  0  0  0  0  0  0  0  0  0  0  0
    0.1343    5.0592    5.3692 H   0  0  0  0  0  0  0  0  0  0  0  0
   -2.0746    3.2388    2.7287 H   0  0  0  0  0  0  0  0  0  0  0  0
   -2.6425    3.5325    4.2894 H   0  0  0  0  0  0  0  0  0  0  0  0
   -2.2648   -0.1443   -2.5702 H   0  0  0  0  0  0  0  0  0  0  0  0
   -4.1257   -1.0979   -3.8567 H   0  0  0  0  0  0  0  0  0  0  0  0
   -6.4477   -0.6926   -3.1874 H   0  0  0  0  0  0  0  0  0  0  0  0
   -5.0741    1.5035    0.2580 H   0  0  0  0  0  0  0  0  0  0  0  0
   -7.4343   -2.0013   -1.6486 H   0  0  0  0  0  0  0  0  0  0  0  0
   -8.9727   -1.5733   -2.4691 H   0  0  0  0  0  0  0  0  0  0  0  0
   -8.9663   -2.2229   -0.7978 H   0  0  0  0  0  0  0  0  0  0  0  0
  -10.4608   -0.0934   -0.4208 H   0  0  0  0  0  0  0  0  0  0  0  0
   -9.5764    2.3407    0.5425 H   0  0  0  0  0  0  0  0  0  0  0  0
   -1.2438   -2.9435    1.6937 H   0  0  0  0  0  0  0  0  0  0  0  0
   -0.1593   -4.2811    1.5026 H   0  0  0  0  0  0  0  0  0  0  0  0
   -3.0800   -2.9952    0.5990 H   0  0  0  0  0  0  0  0  0  0  0  0
    1.9435   -2.8013   -1.1213 H   0  0  0  0  0  0  0  0  0  0  0  0
    1.0162   -4.2835   -1.0251 H   0  0  0  0  0  0  0  0  0  0  0  0
    2.0010   -3.7743    0.3597 H   0  0  0  0  0  0  0  0  0  0  0  0
  1  2  1  0  0  0  0
  1  3  1  0  0  0  0
  1  8  1  0  0  0  0
  1 39  1  1  0  0  0
  3  4  2  0  0  0  0
  3 33  1  0  0  0  0
  4  5  1  0  0  0  0
  4  6  1  0  0  0  0
  6  7  2  0  0  0  0
  6 20  1  0  0  0  0
  7  8  2  0  0  0  0
  8  9  1  0  0  0  0
  9 10  1  0  0  0  0
 10 11  1  0  0  0  0
 10 15  2  0  0  0  0
 11 12  2  0  0  0  0
 11 40  1  0  0  0  0
 12 13  1  0  0  0  0
 12 17  1  0  0  0  0
 13 14  2  0  0  0  0
 13 41  1  0  0  0  0
 14 15  1  0  0  0  0
 14 42  1  0  0  0  0
 15 16  1  0  0  0  0
 16 43  1  0  0  0  0
 17 18  2  0  0  0  0
 17 19  1  0  0  0  0
 18 44  1  0  0  0  0
 19 45  1  0  0  0  0
 19 46  1  0  0  0  0
 20 21  1  0  0  0  0
 21 22  1  0  0  0  0
 21 26  2  0  0  0  0
 22 23  2  0  0  0  0
 22 47  1  0  0  0  0
 23 24  1  0  0  0  0
 23 48  1  0  0  0  0
 24 25  2  0  0  0  0
 24 49  1  0  0  0  0
 25 26  1  0  0  0  0
 25 27  1  0  0  0  0
 26 50  1  0  0  0  0
 27 28  1  0  0  0  0
 27 32  2  0  0  0  0
 28 29  1  0  0  0  0
 28 30  1  0  0  0  0
 29 51  1  0  0  0  0
 29 52  1  0  0  0  0
 29 53  1  0  0  0  0
 30 31  2  0  0  0  0
 30 54  1  0  0  0  0
 31 32  1  0  0  0  0
 31 55  1  0  0  0  0
 33 34  1  0  0  0  0
 33 38  1  0  0  0  0
 34 35  1  0  0  0  0
 34 56  1  0  0  0  0
 34 57  1  0  0  0  0
 35 36  2  0  0  0  0
 35 37  1  0  0  0  0
 37 58  1  0  0  0  0
 38 59  1  0  0  0  0
 38 60  1  0  0  0  0
 38 61  1  0  0  0  0
M  END
$$$$
