data/FXA/cocry_dataset/1iqe_XMB_LIG.pdb
 OpenBabel03092320563D

 75 79  0  0  1  0  0  0  0  0999 V2000
    2.8734   -1.5125    0.5971 C   0  0  0  0  0  0  0  0  0  0  0  0
    3.5849   -1.5542    1.6105 O   0  0  0  0  0  0  0  0  0  0  0  0
    2.4129   -2.6944    0.0130 N   0  0  0  0  0  0  0  0  0  0  0  0
    1.5790   -2.8249   -1.1848 C   0  0  0  0  0  0  0  0  0  0  0  0
    0.1786   -3.2794   -0.8293 C   0  0  0  0  0  0  0  0  0  0  0  0
    0.2557   -4.8785   -0.0701 S   0  0  0  0  0  0  0  0  0  0  0  0
   -1.0380   -5.1575    0.5214 O   0  0  0  0  0  0  0  0  0  0  0  0
    0.8401   -5.7996   -1.0272 O   0  0  0  0  0  0  0  0  0  0  0  0
    1.4242   -4.6094    1.2428 C   0  0  0  0  0  0  0  0  0  0  0  0
    2.6908   -3.9719    0.6943 C   0  0  0  0  0  0  0  0  0  0  0  0
    2.4996   -0.1105    0.0240 C   0  0  2  0  0  0  0  0  0  0  0  0
    0.9840    0.1657    0.0228 C   0  0  0  0  0  0  0  0  0  0  0  0
    0.3120   -0.2337    1.2739 N   0  0  0  0  0  0  0  0  0  0  0  0
   -1.3871   -0.1830    1.2414 S   0  0  0  0  0  0  0  0  0  0  0  0
   -1.8201   -0.4854   -0.1036 O   0  0  0  0  0  0  0  0  0  0  0  0
   -1.8382   -0.9415    2.3863 O   0  0  0  0  0  0  0  0  0  0  0  0
   -1.7068    1.5312    1.5629 C   0  0  0  0  0  0  0  0  0  0  0  0
   -1.7676    2.4405    0.5019 C   0  0  0  0  0  0  0  0  0  0  0  0
   -2.0409    3.7936    0.7543 C   0  0  0  0  0  0  0  0  0  0  0  0
   -2.2722    4.2182    2.0873 C   0  0  0  0  0  0  0  0  0  0  0  0
   -2.2216    3.2830    3.1326 C   0  0  0  0  0  0  0  0  0  0  0  0
   -1.9422    1.9417    2.8748 C   0  0  0  0  0  0  0  0  0  0  0  0
   -2.5607    5.5663    2.3419 C   0  0  0  0  0  0  0  0  0  0  0  0
   -2.6143    6.4844    1.2943 C   0  0  0  0  0  0  0  0  0  0  0  0
   -2.3794    6.0768   -0.0178 C   0  0  0  0  0  0  0  0  0  0  0  0
   -2.0970    4.7355   -0.2855 C   0  0  0  0  0  0  0  0  0  0  0  0
   -2.9647    8.1346    1.6282 Cl  0  0  0  0  0  0  0  0  0  0  0  0
    3.1930    0.1238   -1.2697 N   0  0  0  0  0  0  0  0  0  0  0  0
    2.8702    1.4006   -1.9127 C   0  0  0  0  0  0  0  0  0  0  0  0
    3.4798    1.4702   -3.3276 C   0  0  0  0  0  0  0  0  0  0  0  0
    5.0137    1.3735   -3.3279 C   0  0  0  0  0  0  0  0  0  0  0  0
    5.6644    2.6390   -2.7753 C   0  0  0  0  0  0  0  0  0  0  0  0
    5.1762    3.8018   -3.5216 N   0  0  0  0  0  0  0  0  0  0  0  0
    6.0502    4.7138   -4.0885 C   0  0  0  0  0  0  0  0  0  0  0  0
    7.2433    4.3021   -4.6904 C   0  0  0  0  0  0  0  0  0  0  0  0
    8.0775    5.2377   -5.2862 C   0  0  0  0  0  0  0  0  0  0  0  0
    7.8194    6.5587   -5.3225 N   0  0  0  0  0  0  0  0  0  0  0  0
    6.6740    6.9524   -4.7332 C   0  0  0  0  0  0  0  0  0  0  0  0
    5.7787    6.0851   -4.1206 C   0  0  0  0  0  0  0  0  0  0  0  0
    3.7313    4.0143   -3.5514 C   0  0  0  0  0  0  0  0  0  0  0  0
    3.0477    2.7473   -4.0730 C   0  0  0  0  0  0  0  0  0  0  0  0
    2.0727   -3.5481   -1.8452 H   0  0  0  0  0  0  0  0  0  0  0  0
    1.5298   -1.8957   -1.7445 H   0  0  0  0  0  0  0  0  0  0  0  0
   -0.4584   -3.3503   -1.7142 H   0  0  0  0  0  0  0  0  0  0  0  0
   -0.2905   -2.6158   -0.1025 H   0  0  0  0  0  0  0  0  0  0  0  0
    1.6318   -5.5827    1.6970 H   0  0  0  0  0  0  0  0  0  0  0  0
    0.9395   -3.9659    1.9839 H   0  0  0  0  0  0  0  0  0  0  0  0
    3.1763   -4.6326   -0.0337 H   0  0  0  0  0  0  0  0  0  0  0  0
    3.3994   -3.8360    1.5171 H   0  0  0  0  0  0  0  0  0  0  0  0
    2.9418    0.6008    0.7376 H   0  0  0  0  0  0  0  0  0  0  0  0
    0.8160    1.2369   -0.1185 H   0  0  0  0  0  0  0  0  0  0  0  0
    0.5196   -0.3539   -0.8165 H   0  0  0  0  0  0  0  0  0  0  0  0
    0.6759    0.2238    2.1153 H   0  0  0  0  0  0  0  0  0  0  0  0
   -1.6090    2.0970   -0.5192 H   0  0  0  0  0  0  0  0  0  0  0  0
   -2.4164    3.5890    4.1592 H   0  0  0  0  0  0  0  0  0  0  0  0
   -1.9294    1.2280    3.6962 H   0  0  0  0  0  0  0  0  0  0  0  0
   -2.7466    5.9026    3.3600 H   0  0  0  0  0  0  0  0  0  0  0  0
   -2.4239    6.7949   -0.8294 H   0  0  0  0  0  0  0  0  0  0  0  0
   -1.9265    4.4352   -1.3175 H   0  0  0  0  0  0  0  0  0  0  0  0
    3.0392   -0.6459   -1.9152 H   0  0  0  0  0  0  0  0  0  0  0  0
    3.2214    2.2261   -1.2838 H   0  0  0  0  0  0  0  0  0  0  0  0
    1.7869    1.5140   -2.0283 H   0  0  0  0  0  0  0  0  0  0  0  0
    3.0854    0.6167   -3.8964 H   0  0  0  0  0  0  0  0  0  0  0  0
    5.3511    1.2213   -4.3615 H   0  0  0  0  0  0  0  0  0  0  0  0
    5.3537    0.5009   -2.7602 H   0  0  0  0  0  0  0  0  0  0  0  0
    6.7528    2.5266   -2.8181 H   0  0  0  0  0  0  0  0  0  0  0  0
    5.4230    2.7654   -1.7132 H   0  0  0  0  0  0  0  0  0  0  0  0
    7.5153    3.2542   -4.7427 H   0  0  0  0  0  0  0  0  0  0  0  0
    8.9962    4.9277   -5.7755 H   0  0  0  0  0  0  0  0  0  0  0  0
    6.4810    8.0207   -4.7664 H   0  0  0  0  0  0  0  0  0  0  0  0
    4.8915    6.4979   -3.6521 H   0  0  0  0  0  0  0  0  0  0  0  0
    3.4464    4.8335   -4.2226 H   0  0  0  0  0  0  0  0  0  0  0  0
    3.3671    4.2746   -2.5513 H   0  0  0  0  0  0  0  0  0  0  0  0
    3.3109    2.6267   -5.1332 H   0  0  0  0  0  0  0  0  0  0  0  0
    1.9589    2.8695   -4.0372 H   0  0  0  0  0  0  0  0  0  0  0  0
  1  2  2  0  0  0  0
  1  3  1  0  0  0  0
  3  4  1  0  0  0  0
  3 10  1  0  0  0  0
  4  5  1  0  0  0  0
  4 42  1  0  0  0  0
  4 43  1  0  0  0  0
  5  6  1  0  0  0  0
  5 44  1  0  0  0  0
  5 45  1  0  0  0  0
  6  7  2  0  0  0  0
  6  8  2  0  0  0  0
  6  9  1  0  0  0  0
  9 10  1  0  0  0  0
  9 46  1  0  0  0  0
  9 47  1  0  0  0  0
 10 48  1  0  0  0  0
 10 49  1  0  0  0  0
 11 28  1  0  0  0  0
 11 12  1  0  0  0  0
 11  1  1  0  0  0  0
 11 50  1  1  0  0  0
 12 13  1  0  0  0  0
 12 51  1  0  0  0  0
 12 52  1  0  0  0  0
 13 14  1  0  0  0  0
 13 53  1  0  0  0  0
 14 15  2  0  0  0  0
 14 16  2  0  0  0  0
 14 17  1  0  0  0  0
 17 18  1  0  0  0  0
 17 22  2  0  0  0  0
 18 19  2  0  0  0  0
 18 54  1  0  0  0  0
 19 20  1  0  0  0  0
 19 26  1  0  0  0  0
 20 21  2  0  0  0  0
 20 23  1  0  0  0  0
 21 22  1  0  0  0  0
 21 55  1  0  0  0  0
 22 56  1  0  0  0  0
 23 24  2  0  0  0  0
 23 57  1  0  0  0  0
 24 25  1  0  0  0  0
 24 27  1  0  0  0  0
 25 26  2  0  0  0  0
 25 58  1  0  0  0  0
 26 59  1  0  0  0  0
 28 29  1  0  0  0  0
 28 60  1  0  0  0  0
 29 30  1  0  0  0  0
 29 61  1  0  0  0  0
 29 62  1  0  0  0  0
 30 31  1  0  0  0  0
 30 41  1  0  0  0  0
 30 63  1  0  0  0  0
 31 32  1  0  0  0  0
 31 64  1  0  0  0  0
 31 65  1  0  0  0  0
 32 33  1  0  0  0  0
 32 66  1  0  0  0  0
 32 67  1  0  0  0  0
 33 34  1  0  0  0  0
 33 40  1  0  0  0  0
 34 35  1  0  0  0  0
 34 39  2  0  0  0  0
 35 36  2  0  0  0  0
 35 68  1  0  0  0  0
 36 37  1  0  0  0  0
 36 69  1  0  0  0  0
 37 38  2  0  0  0  0
 38 39  1  0  0  0  0
 38 70  1  0  0  0  0
 39 71  1  0  0  0  0
 40 41  1  0  0  0  0
 40 72  1  0  0  0  0
 40 73  1  0  0  0  0
 41 74  1  0  0  0  0
 41 75  1  0  0  0  0
M  END
$$$$
