data/FXA/cocry_dataset/1iqf_XMD_LIG.pdb
 OpenBabel03092320563D

 66 70  0  0  1  0  0  0  0  0999 V2000
   -2.9180   -2.3928    1.1113 C   0  0  0  0  0  0  0  0  0  0  0  0
   -4.3072   -2.2648    0.8353 C   0  0  0  0  0  0  0  0  0  0  0  0
   -5.1537   -3.2610    1.3466 C   0  0  0  0  0  0  0  0  0  0  0  0
   -4.6478   -4.3293    2.0947 C   0  0  0  0  0  0  0  0  0  0  0  0
   -3.2729   -4.4656    2.3743 C   0  0  0  0  0  0  0  0  0  0  0  0
   -2.3811   -3.4844    1.8945 C   0  0  0  0  0  0  0  0  0  0  0  0
   -0.9986   -3.6730    2.1842 C   0  0  0  0  0  0  0  0  0  0  0  0
   -0.5263   -4.7923    2.9044 C   0  0  0  0  0  0  0  0  0  0  0  0
   -1.4303   -5.7511    3.3506 C   0  0  0  0  0  0  0  0  0  0  0  0
   -0.8653   -7.1411    4.2031 Cl  0  0  0  0  0  0  0  0  0  0  0  0
   -2.7904   -5.5875    3.0967 C   0  0  0  0  0  0  0  0  0  0  0  0
   -4.9495   -1.1895   -0.5026 S   0  0  0  0  0  0  0  0  0  0  0  0
   -3.8000   -0.6427   -1.1850 O   0  0  0  0  0  0  0  0  0  0  0  0
   -5.8688   -2.0199   -1.2669 O   0  0  0  0  0  0  0  0  0  0  0  0
   -5.9452    0.1259    0.1199 N   0  0  0  0  0  0  0  0  0  0  0  0
   -5.3922    1.0471    1.1338 C   0  0  0  0  0  0  0  0  0  0  0  0
   -4.1324    1.7177    0.5433 C   0  0  2  0  0  0  0  0  0  0  0  0
   -3.1913    1.6059    1.7355 C   0  0  0  0  0  0  0  0  0  0  0  0
   -2.8985    0.4716    2.1276 O   0  0  0  0  0  0  0  0  0  0  0  0
   -2.8789    2.7123    2.4285 O   0  0  0  0  0  0  0  0  0  0  0  0
   -2.2918    2.3786    3.7118 C   0  0  0  0  0  0  0  0  0  0  0  0
   -3.3984    2.2730    4.7502 C   0  0  0  0  0  0  0  0  0  0  0  0
   -4.4593    2.6179   -0.6048 N   0  0  0  0  0  0  0  0  0  0  0  0
   -5.5232    2.1484   -1.4668 C   0  0  0  0  0  0  0  0  0  0  0  0
   -5.7218    2.6300   -2.5924 O   0  0  0  0  0  0  0  0  0  0  0  0
   -6.4887    1.0588   -0.9445 C   0  0  0  0  0  0  0  0  0  0  0  0
   -3.2883    3.0353   -1.4184 C   0  0  0  0  0  0  0  0  0  0  0  0
   -3.4253    4.3190   -2.2249 C   0  0  0  0  0  0  0  0  0  0  0  0
   -4.1805    5.3747   -1.8775 C   0  0  0  0  0  0  0  0  0  0  0  0
   -4.3355    6.5984   -2.7505 C   0  0  0  0  0  0  0  0  0  0  0  0
   -3.1895    6.7363   -3.6769 N   0  0  0  0  0  0  0  0  0  0  0  0
   -2.7124    8.0412   -3.9481 C   0  0  0  0  0  0  0  0  0  0  0  0
   -1.3753    8.2659   -4.3061 C   0  0  0  0  0  0  0  0  0  0  0  0
   -0.9150    9.5650   -4.4752 C   0  0  0  0  0  0  0  0  0  0  0  0
   -1.6844   10.6605   -4.3289 N   0  0  0  0  0  0  0  0  0  0  0  0
   -2.9748   10.4391   -4.0147 C   0  0  0  0  0  0  0  0  0  0  0  0
   -3.5237    9.1768   -3.8296 C   0  0  0  0  0  0  0  0  0  0  0  0
   -2.5845    5.5778   -4.1334 C   0  0  0  0  0  0  0  0  0  0  0  0
   -2.6962    4.3962   -3.4967 C   0  0  0  0  0  0  0  0  0  0  0  0
   -2.2172   -1.6689    0.6951 H   0  0  0  0  0  0  0  0  0  0  0  0
   -6.2158   -3.2544    1.0808 H   0  0  0  0  0  0  0  0  0  0  0  0
   -5.3492   -5.1052    2.4322 H   0  0  0  0  0  0  0  0  0  0  0  0
   -0.2592   -2.9554    1.8411 H   0  0  0  0  0  0  0  0  0  0  0  0
    0.5384   -4.9210    3.0938 H   0  0  0  0  0  0  0  0  0  0  0  0
   -3.4791   -6.3562    3.4475 H   0  0  0  0  0  0  0  0  0  0  0  0
   -5.2857    0.5049    2.0779 H   0  0  0  0  0  0  0  0  0  0  0  0
   -6.1426    1.8261    1.3712 H   0  0  0  0  0  0  0  0  0  0  0  0
   -3.5714    1.0087   -0.0405 H   0  0  0  0  0  0  0  0  0  0  0  0
   -1.5774    3.1612    3.9737 H   0  0  0  0  0  0  0  0  0  0  0  0
   -1.7127    1.4419    3.6921 H   0  0  0  0  0  0  0  0  0  0  0  0
   -4.1285    3.0759    4.6159 H   0  0  0  0  0  0  0  0  0  0  0  0
   -2.9908    2.3154    5.7638 H   0  0  0  0  0  0  0  0  0  0  0  0
   -3.9440    1.3265    4.6486 H   0  0  0  0  0  0  0  0  0  0  0  0
   -6.8957    0.4912   -1.7864 H   0  0  0  0  0  0  0  0  0  0  0  0
   -7.3434    1.6100   -0.5175 H   0  0  0  0  0  0  0  0  0  0  0  0
   -3.0982    2.2024   -2.1117 H   0  0  0  0  0  0  0  0  0  0  0  0
   -2.4166    3.1239   -0.7623 H   0  0  0  0  0  0  0  0  0  0  0  0
   -4.7279    5.3731   -0.9441 H   0  0  0  0  0  0  0  0  0  0  0  0
   -4.4323    7.4630   -2.0862 H   0  0  0  0  0  0  0  0  0  0  0  0
   -5.2626    6.5026   -3.3310 H   0  0  0  0  0  0  0  0  0  0  0  0
   -0.6709    7.4487   -4.4095 H   0  0  0  0  0  0  0  0  0  0  0  0
    0.1239    9.7588   -4.7264 H   0  0  0  0  0  0  0  0  0  0  0  0
   -3.5839   11.3317   -3.9039 H   0  0  0  0  0  0  0  0  0  0  0  0
   -4.5793    9.1049   -3.5975 H   0  0  0  0  0  0  0  0  0  0  0  0
   -2.0291    5.6699   -5.0647 H   0  0  0  0  0  0  0  0  0  0  0  0
   -2.2378    3.5083   -3.9149 H   0  0  0  0  0  0  0  0  0  0  0  0
  1  2  1  0  0  0  0
  1  6  2  0  0  0  0
  1 40  1  0  0  0  0
  2  3  2  0  0  0  0
  2 12  1  0  0  0  0
  3  4  1  0  0  0  0
  3 41  1  0  0  0  0
  4  5  2  0  0  0  0
  4 42  1  0  0  0  0
  5  6  1  0  0  0  0
  5 11  1  0  0  0  0
  6  7  1  0  0  0  0
  7  8  2  0  0  0  0
  7 43  1  0  0  0  0
  8  9  1  0  0  0  0
  8 44  1  0  0  0  0
  9 10  1  0  0  0  0
  9 11  2  0  0  0  0
 11 45  1  0  0  0  0
 12 13  2  0  0  0  0
 12 14  2  0  0  0  0
 12 15  1  0  0  0  0
 15 16  1  0  0  0  0
 15 26  1  0  0  0  0
 16 17  1  0  0  0  0
 16 46  1  0  0  0  0
 16 47  1  0  0  0  0
 17 23  1  0  0  0  0
 17 18  1  0  0  0  0
 17 48  1  6  0  0  0
 18 19  2  0  0  0  0
 18 20  1  0  0  0  0
 20 21  1  0  0  0  0
 21 22  1  0  0  0  0
 21 49  1  0  0  0  0
 21 50  1  0  0  0  0
 22 51  1  0  0  0  0
 22 52  1  0  0  0  0
 22 53  1  0  0  0  0
 23 24  1  0  0  0  0
 23 27  1  0  0  0  0
 24 25  2  0  0  0  0
 24 26  1  0  0  0  0
 26 54  1  0  0  0  0
 26 55  1  0  0  0  0
 27 28  1  0  0  0  0
 27 56  1  0  0  0  0
 27 57  1  0  0  0  0
 28 29  2  0  0  0  0
 28 39  1  0  0  0  0
 29 30  1  0  0  0  0
 29 58  1  0  0  0  0
 30 31  1  0  0  0  0
 30 59  1  0  0  0  0
 30 60  1  0  0  0  0
 31 32  1  0  0  0  0
 31 38  1  0  0  0  0
 32 33  1  0  0  0  0
 32 37  2  0  0  0  0
 33 34  2  0  0  0  0
 33 61  1  0  0  0  0
 34 35  1  0  0  0  0
 34 62  1  0  0  0  0
 35 36  2  0  0  0  0
 36 37  1  0  0  0  0
 36 63  1  0  0  0  0
 37 64  1  0  0  0  0
 38 39  2  0  0  0  0
 38 65  1  0  0  0  0
 39 66  1  0  0  0  0
M  END
$$$$
