50

C     -14.504613876342773    205.826065063476562    111.235717773437500
N     -14.472586631774902    205.448333740234375    112.568908691406250
C     -15.656449317932129    205.164718627929688    113.230293273925781
C     -16.939416885375977    205.016403198242188    112.460388183593750
C     -16.812973022460938    205.392303466796875    110.989860534667969
N     -15.641319274902344    205.897262573242188    110.469268798828125
C     -10.239826202392578    206.280532836914062    112.547622680664062
C      -9.581406593322754    207.345397949218750    111.913955688476562
C     -10.190282821655273    208.037765502929688    110.854461669921875
C     -11.452934265136719    207.629867553710938    110.415290832519531
C     -12.130058288574219    206.569519042968750    111.028251647949219
C     -11.506839752197266    205.903350830078125    112.096221923828125
H     -13.672556877136230    204.084625244140625    117.363677978515625
H     -14.449199676513672    205.583343505859375    117.878952026367188
H     -12.063227653503418    205.558761596679688    118.510223388671875
H      -7.513780117034912    206.647109985351562    110.808113098144531
H     -11.607535362243652    205.315811157226562    116.819686889648438
H     -19.554552078247070    206.678619384765625    111.840293884277344
H      -9.705346107482910    208.890640258789062    110.384902954101562
H      -9.786468505859375    205.754852294921875    113.385841369628906
H     -16.297506332397461    205.569427490234375    115.676101684570312
H     -13.694592475891113    206.705963134765625    109.693931579589844
H      -6.527345657348633    207.996292114257812    111.050239562988281
H     -19.901342391967773    204.966857910156250    111.476722717285156
H     -15.673092842102051    204.026428222656250    116.242218017578125
H     -12.007625579833984    205.073196411132812    112.580688476562500
H     -14.493615150451660    207.201522827148438    114.552192687988281
H     -14.911868095397949    207.379257202148438    116.250656127929688
H     -13.381509780883789    205.014358520507812    115.086311340332031
H     -12.868884086608887    208.642608642578125    115.681777954101562
H     -11.397890090942383    207.688934326171875    117.431785583496094
H     -13.087699890136719    207.721405029296875    117.949996948242188
H     -12.092672348022461    207.153305053710938    115.130142211914062
H     -11.925398826599121    208.170150756835938    109.602188110351562
C     -19.109762191772461    205.692840576171875    111.679969787597656
N     -18.273004531860352    205.249114990234375    112.974777221679688
N     -18.079338073730469    205.747512817382812    110.449928283691406
N     -13.417734146118164    206.250122070312500    110.550704956054688
N      -6.961180210113525    207.175750732421875    111.473274230957031
S      -7.968224048614502    207.889877319335938    112.529541015625000
O      -7.725485801696777    207.310134887695312    113.827499389648438
O      -7.803736686706543    209.289566040039062    112.224960327148438
O     -15.625519752502441    204.238265991210938    114.225006103515625
C     -15.501951217651367    204.831649780273438    115.522834777832031
C     -14.125896453857422    205.443496704101562    115.763679504394531
C     -14.177518844604492    206.947631835937500    115.564933776855469
C     -12.823579788208008    207.561065673828125    115.833824157714844
C     -12.386909484863281    207.261108398437500    117.248016357421875
C     -12.354027748107910    205.768966674804688    117.477584838867188
C     -13.708862304687500    205.163787841796875    117.192031860351562
