complex.gro
  PyMOL2.5          3D                             0

 34 38  0  0  0  0  0  0  0  0999 V2000
  -17.1601  206.3198  112.1697 C   0  0  0  0  0  0  0  0  0  0  0  0
  -16.8801  206.8398  113.2997 N   0  0  0  0  0  0  0  0  0  0  0  0
  -15.5201  207.0898  113.7497 C   0  0  0  0  0  0  0  0  0  0  0  0
  -15.3501  206.7397  115.2297 C   0  0  0  0  0  0  0  0  0  0  0  0
  -13.8901  206.7598  115.5897 C   0  0  0  0  0  0  0  0  0  0  0  0
  -12.9001  206.7397  114.7497 C   0  0  0  0  0  0  0  0  0  0  0  0
  -11.5001  206.7598  115.2597 C   0  0  0  0  0  0  0  0  0  0  0  0
  -10.5901  207.6397  114.4097 C   0  0  0  0  0  0  0  0  0  0  0  0
   -9.8701  206.6997  113.4097 C   0  0  0  0  0  0  0  0  0  0  0  0
  -10.8201  206.4498  112.2697 C   0  0  0  0  0  0  0  0  0  0  0  0
  -12.1101  205.7498  112.6297 C   0  0  0  0  0  0  0  0  0  0  0  0
  -13.1301  206.6898  113.2397 C   0  0  0  0  0  0  0  0  0  0  0  0
  -14.5501  206.2098  112.9497 C   0  0  0  0  0  0  0  0  0  0  0  0
  -14.8801  206.3598  111.4697 C   0  0  0  0  0  0  0  0  0  0  0  0
  -16.2301  205.9198  111.2797 O   0  0  0  0  0  0  0  0  0  0  0  0
  -14.6901  204.7498  113.3897 C   0  0  0  0  0  0  0  0  0  0  0  0
   -8.6301  207.4297  112.8897 C   0  0  0  0  0  0  0  0  0  0  0  0
   -7.7501  206.6198  111.9297 C   0  0  0  0  0  0  0  0  0  0  0  0
   -6.3801  207.3397  111.9997 C   0  0  0  0  0  0  0  0  0  0  0  0
   -6.3501  208.0897  113.3497 C   0  0  0  0  0  0  0  0  0  0  0  0
   -7.6501  207.7197  114.0597 C   0  0  0  0  0  0  0  0  0  0  0  0
   -8.2801  208.8497  114.8597 C   0  0  0  0  0  0  0  0  0  0  0  0
   -9.6101  208.3197  115.3497 C   0  0  0  0  0  0  0  0  0  0  0  0
   -9.9101  208.4397  116.5097 O   0  0  0  0  0  0  0  0  0  0  0  0
   -7.4701  206.4697  114.9297 C   0  0  0  0  0  0  0  0  0  0  0  0
   -6.2701  208.2797  110.9197 O   0  0  0  0  0  0  0  0  0  0  0  0
   -9.0401  208.7497  112.2197 C   0  0  0  0  0  0  0  0  0  0  0  0
  -19.1901  207.4698  111.3397 C   0  0  0  0  0  0  0  0  0  0  0  0
  -18.6101  206.1398  111.8097 C   0  0  0  0  0  0  0  0  0  0  0  0
  -19.3801  205.6498  113.0397 C   0  0  0  0  0  0  0  0  0  0  0  0
   -5.1501  207.6297  114.1797 C   0  0  0  0  0  0  0  0  0  0  0  0
   -4.2901  208.8397  114.5497 C   0  0  0  0  0  0  0  0  0  0  0  0
   -3.6501  205.7197  114.2597 C   0  0  0  0  0  0  0  0  0  0  0  0
   -4.3401  206.6797  113.3797 N   0  0  0  0  0  0  0  0  0  0  0  0
  1  2  1  0  0  0  0
  1 15  1  0  0  0  0
  1 29  1  0  0  0  0
  2  3  1  0  0  0  0
  3  4  1  0  0  0  0
  3 13  1  0  0  0  0
  4  5  1  0  0  0  0
  5  6  1  0  0  0  0
  6  7  1  0  0  0  0
  6 12  1  0  0  0  0
  7  8  1  0  0  0  0
  8  9  1  0  0  0  0
  8 23  1  0  0  0  0
  9 10  1  0  0  0  0
  9 17  1  0  0  0  0
 10 11  1  0  0  0  0
 11 12  1  0  0  0  0
 12 13  1  0  0  0  0
 13 14  1  0  0  0  0
 13 16  1  0  0  0  0
 14 15  1  0  0  0  0
 17 18  1  0  0  0  0
 17 21  1  0  0  0  0
 17 27  1  0  0  0  0
 18 19  1  0  0  0  0
 19 20  1  0  0  0  0
 19 26  1  0  0  0  0
 20 21  1  0  0  0  0
 20 31  1  0  0  0  0
 21 22  1  0  0  0  0
 21 25  1  0  0  0  0
 22 23  1  0  0  0  0
 23 24  1  0  0  0  0
 28 29  1  0  0  0  0
 29 30  1  0  0  0  0
 31 32  1  0  0  0  0
 31 34  1  0  0  0  0
 33 34  1  0  0  0  0
M  END
$$$$
