step2_200_2000_5.0_28005.xyz.gro
  PyMOL2.5          3D                             0

 34 38  0  0  0  0  0  0  0  0999 V2000
  -14.5720  206.0730  112.8431 C   0  0  0  0  0  0  0  0  0  0  0  0
  -14.5118  206.6628  114.0032 N   0  0  0  0  0  0  0  0  0  0  0  0
  -13.1717  207.0528  114.5030 C   0  0  0  0  0  0  0  0  0  0  0  0
  -13.1415  207.0626  116.0330 C   0  0  0  0  0  0  0  0  0  0  0  0
  -11.7514  207.2325  116.5828 C   0  0  0  0  0  0  0  0  0  0  0  0
  -10.6315  207.1126  115.8525 C   0  0  0  0  0  0  0  0  0  0  0  0
   -9.2814  207.2525  116.5423 C   0  0  0  0  0  0  0  0  0  0  0  0
   -8.1815  207.9727  115.7522 C   0  0  0  0  0  0  0  0  0  0  0  0
   -7.4517  206.9728  114.8319 C   0  0  0  0  0  0  0  0  0  0  0  0
   -8.3119  206.6429  113.6220 C   0  0  0  0  0  0  0  0  0  0  0  0
   -9.5518  205.8529  113.9822 C   0  0  0  0  0  0  0  0  0  0  0  0
  -10.6918  206.7828  114.3925 C   0  0  0  0  0  0  0  0  0  0  0  0
  -12.0518  206.1729  113.9827 C   0  0  0  0  0  0  0  0  0  0  0  0
  -12.1921  206.2031  112.4827 C   0  0  0  0  0  0  0  0  0  0  0  0
  -13.4922  205.8031  112.0429 O   0  0  0  0  0  0  0  0  0  0  0  0
  -12.1917  204.7428  114.4825 C   0  0  0  0  0  0  0  0  0  0  0  0
   -6.1218  207.5429  114.3518 C   0  0  0  0  0  0  0  0  0  0  0  0
   -5.2719  206.6430  113.4415 C   0  0  0  0  0  0  0  0  0  0  0  0
   -3.8619  207.2630  113.5113 C   0  0  0  0  0  0  0  0  0  0  0  0
   -3.7617  207.9628  114.9014 C   0  0  0  0  0  0  0  0  0  0  0  0
   -5.1916  207.8527  115.5316 C   0  0  0  0  0  0  0  0  0  0  0  0
   -5.8014  208.9926  116.3219 C   0  0  0  0  0  0  0  0  0  0  0  0
   -7.2414  208.6726  116.7321 C   0  0  0  0  0  0  0  0  0  0  0  0
   -7.6812  209.2224  117.7323 O   0  0  0  0  0  0  0  0  0  0  0  0
   -5.1114  206.6426  116.4714 C   0  0  0  0  0  0  0  0  0  0  0  0
   -3.7121  208.1732  112.4314 O   0  0  0  0  0  0  0  0  0  0  0  0
   -6.3819  208.8030  113.5620 C   0  0  0  0  0  0  0  0  0  0  0  0
  -16.4323  207.0631  111.5436 C   0  0  0  0  0  0  0  0  0  0  0  0
  -15.8722  205.7731  112.0933 C   0  0  0  0  0  0  0  0  0  0  0  0
  -16.9520  205.1329  112.9434 C   0  0  0  0  0  0  0  0  0  0  0  0
   -2.8617  209.2328  114.9914 C   0  0  0  0  0  0  0  0  0  0  0  0
   -2.9014  209.8826  116.3515 C   0  0  0  0  0  0  0  0  0  0  0  0
   -1.9020  211.0630  113.6214 C   0  0  0  0  0  0  0  0  0  0  0  0
   -3.1119  210.2830  113.9616 N   0  0  0  0  0  0  0  0  0  0  0  0
  1  2  1  0  0  0  0
  1 15  1  0  0  0  0
  1 29  1  0  0  0  0
  2  3  1  0  0  0  0
  3  4  1  0  0  0  0
  3 13  1  0  0  0  0
  4  5  1  0  0  0  0
  5  6  1  0  0  0  0
  6  7  1  0  0  0  0
  6 12  1  0  0  0  0
  7  8  1  0  0  0  0
  8  9  1  0  0  0  0
  8 23  1  0  0  0  0
  9 10  1  0  0  0  0
  9 17  1  0  0  0  0
 10 11  1  0  0  0  0
 11 12  1  0  0  0  0
 12 13  1  0  0  0  0
 13 14  1  0  0  0  0
 13 16  1  0  0  0  0
 14 15  1  0  0  0  0
 17 18  1  0  0  0  0
 17 21  1  0  0  0  0
 17 27  1  0  0  0  0
 18 19  1  0  0  0  0
 19 20  1  0  0  0  0
 19 26  1  0  0  0  0
 20 21  1  0  0  0  0
 20 31  1  0  0  0  0
 21 22  1  0  0  0  0
 21 25  1  0  0  0  0
 22 23  1  0  0  0  0
 23 24  1  0  0  0  0
 28 29  1  0  0  0  0
 29 30  1  0  0  0  0
 31 32  1  0  0  0  0
 31 34  1  0  0  0  0
 33 34  1  0  0  0  0
M  END
$$$$
