step2_200_2000_5.0_86398.xyz.gro
  PyMOL2.5          3D                             0

 34 40  0  0  0  0  0  0  0  0999 V2000
  -17.0906  209.6238  113.5945 C   0  0  0  0  0  0  0  0  0  0  0  0
  -16.8406  208.4536  114.2243 N   0  0  0  0  0  0  0  0  0  0  0  0
  -15.3306  208.0735  114.7341 C   0  0  0  0  0  0  0  0  0  0  0  0
  -14.8606  206.6834  115.3438 C   0  0  0  0  0  0  0  0  0  0  0  0
  -13.3406  206.3034  115.3037 C   0  0  0  0  0  0  0  0  0  0  0  0
  -12.4006  206.9335  114.5838 C   0  0  0  0  0  0  0  0  0  0  0  0
  -10.9406  206.4836  114.4337 C   0  0  0  0  0  0  0  0  0  0  0  0
   -9.9606  207.6835  114.5739 C   0  0  0  0  0  0  0  0  0  0  0  0
   -9.8006  208.3238  113.2440 C   0  0  0  0  0  0  0  0  0  0  0  0
  -10.9806  209.2839  112.9242 C   0  0  0  0  0  0  0  0  0  0  0  0
  -12.1806  208.4640  112.5741 C   0  0  0  0  0  0  0  0  0  0  0  0
  -12.8806  208.1537  113.8841 C   0  0  0  0  0  0  0  0  0  0  0  0
  -14.3806  208.1638  113.6041 C   0  0  0  0  0  0  0  0  0  0  0  0
  -14.6506  209.6638  113.3844 C   0  0  0  0  0  0  0  0  0  0  0  0
  -15.9806  210.2538  113.2546 O   0  0  0  0  0  0  0  0  0  0  0  0
  -14.6206  206.8239  112.8238 C   0  0  0  0  0  0  0  0  0  0  0  0
   -8.1606  209.1838  113.0841 C   0  0  0  0  0  0  0  0  0  0  0  0
   -7.7407  210.3741  111.7443 C   0  0  0  0  0  0  0  0  0  0  0  0
   -5.9607  210.5141  112.0243 C   0  0  0  0  0  0  0  0  0  0  0  0
   -5.9806  209.2740  112.4641 C   0  0  0  0  0  0  0  0  0  0  0  0
   -6.4906  208.6837  113.6940 C   0  0  0  0  0  0  0  0  0  0  0  0
   -7.4406  208.5034  114.9340 C   0  0  0  0  0  0  0  0  0  0  0  0
   -8.5206  207.3435  114.9038 C   0  0  0  0  0  0  0  0  0  0  0  0
   -8.1606  206.1635  114.9035 O   0  0  0  0  0  0  0  0  0  0  0  0
   -6.0506  207.2337  113.5637 C   0  0  0  0  0  0  0  0  0  0  0  0
   -4.3507  209.2140  112.0640 O   0  0  0  0  0  0  0  0  0  0  0  0
   -8.8107  209.4841  112.0142 C   0  0  0  0  0  0  0  0  0  0  0  0
  -19.0907  210.9244  110.6648 C   0  0  0  0  0  0  0  0  0  0  0  0
  -18.5706  210.5340  112.5147 C   0  0  0  0  0  0  0  0  0  0  0  0
  -18.6006  211.9639  112.9950 C   0  0  0  0  0  0  0  0  0  0  0  0
   -6.1607  208.5343  110.9239 C   0  0  0  0  0  0  0  0  0  0  0  0
   -5.6107  207.1243  110.7936 C   0  0  0  0  0  0  0  0  0  0  0  0
   -5.7908  210.4547  109.0043 C   0  0  0  0  0  0  0  0  0  0  0  0
   -5.4107  209.2245  109.7440 N   0  0  0  0  0  0  0  0  0  0  0  0
  1  2  1  0  0  0  0
  1 15  1  0  0  0  0
  1 29  1  0  0  0  0
  2  3  1  0  0  0  0
  3  4  1  0  0  0  0
  3 13  1  0  0  0  0
  4  5  1  0  0  0  0
  5  6  1  0  0  0  0
  6  7  1  0  0  0  0
  6 12  1  0  0  0  0
  7  8  1  0  0  0  0
  8  9  1  0  0  0  0
  8 23  1  0  0  0  0
  9 10  1  0  0  0  0
  9 17  1  0  0  0  0
  9 27  1  0  0  0  0
 10 11  1  0  0  0  0
 11 12  1  0  0  0  0
 12 13  1  0  0  0  0
 13 14  1  0  0  0  0
 13 16  1  0  0  0  0
 14 15  1  0  0  0  0
 17 18  1  0  0  0  0
 17 21  1  0  0  0  0
 17 27  1  0  0  0  0
 18 19  1  0  0  0  0
 18 27  1  0  0  0  0
 19 20  1  0  0  0  0
 20 21  1  0  0  0  0
 20 26  1  0  0  0  0
 20 31  1  0  0  0  0
 21 22  1  0  0  0  0
 21 25  1  0  0  0  0
 22 23  1  0  0  0  0
 23 24  1  0  0  0  0
 28 29  1  0  0  0  0
 29 30  1  0  0  0  0
 31 32  1  0  0  0  0
 31 34  1  0  0  0  0
 33 34  1  0  0  0  0
M  END
$$$$
