step2_200_2000_5.0_85412.xyz.gro
  PyMOL2.5          3D                             0

 34 38  0  0  0  0  0  0  0  0999 V2000
  -14.1699  206.0129  113.3381 C   0  0  0  0  0  0  0  0  0  0  0  0
  -14.3495  206.2931  114.5981 N   0  0  0  0  0  0  0  0  0  0  0  0
  -13.1593  206.5828  115.4178 C   0  0  0  0  0  0  0  0  0  0  0  0
  -13.3891  206.1531  116.8680 C   0  0  0  0  0  0  0  0  0  0  0  0
  -12.1389  206.1828  117.6877 C   0  0  0  0  0  0  0  0  0  0  0  0
  -10.9090  206.3124  117.1474 C   0  0  0  0  0  0  0  0  0  0  0  0
   -9.6788  206.3722  117.9971 C   0  0  0  0  0  0  0  0  0  0  0  0
   -8.7786  207.5319  117.5768 C   0  0  0  0  0  0  0  0  0  0  0  0
   -7.7589  207.1515  116.4766 C   0  0  0  0  0  0  0  0  0  0  0  0
   -8.3193  206.6814  115.1468 C   0  0  0  0  0  0  0  0  0  0  0  0
   -9.4496  205.6918  115.2472 C   0  0  0  0  0  0  0  0  0  0  0  0
  -10.7193  206.4122  115.6674 C   0  0  0  0  0  0  0  0  0  0  0  0
  -11.9196  205.9024  114.8877 C   0  0  0  0  0  0  0  0  0  0  0  0
  -11.8198  206.3522  113.4576 C   0  0  0  0  0  0  0  0  0  0  0  0
  -12.9600  205.9525  112.7079 O   0  0  0  0  0  0  0  0  0  0  0  0
  -12.0200  204.3824  114.9779 C   0  0  0  0  0  0  0  0  0  0  0  0
   -6.8886  208.3712  116.2163 C   0  0  0  0  0  0  0  0  0  0  0  0
   -5.8688  208.3507  115.0661 C   0  0  0  0  0  0  0  0  0  0  0  0
   -4.7285  209.2905  115.5557 C   0  0  0  0  0  0  0  0  0  0  0  0
   -5.1680  209.7908  116.9358 C   0  0  0  0  0  0  0  0  0  0  0  0
   -6.0283  208.6411  117.4661 C   0  0  0  0  0  0  0  0  0  0  0  0
   -6.9079  208.9915  118.6462 C   0  0  0  0  0  0  0  0  0  0  0  0
   -8.0781  208.0618  118.8266 C   0  0  0  0  0  0  0  0  0  0  0  0
   -8.6279  208.1121  119.9067 O   0  0  0  0  0  0  0  0  0  0  0  0
   -5.1585  207.4409  117.8061 C   0  0  0  0  0  0  0  0  0  0  0  0
   -4.5083  210.4203  114.7255 O   0  0  0  0  0  0  0  0  0  0  0  0
   -7.7983  209.5614  115.9163 C   0  0  0  0  0  0  0  0  0  0  0  0
  -16.2498  206.8533  112.3285 C   0  0  0  0  0  0  0  0  0  0  0  0
  -15.3002  205.6731  112.4084 C   0  0  0  0  0  0  0  0  0  0  0  0
  -16.0404  204.4433  112.9187 C   0  0  0  0  0  0  0  0  0  0  0  0
   -3.9977  210.3505  117.7454 C   0  0  0  0  0  0  0  0  0  0  0  0
   -4.2574  210.3608  119.2355 C   0  0  0  0  0  0  0  0  0  0  0  0
   -2.7771  212.5502  117.8949 C   0  0  0  0  0  0  0  0  0  0  0  0
   -3.8574  211.7505  117.2852 N   0  0  0  0  0  0  0  0  0  0  0  0
  1  2  1  0  0  0  0
  1 15  1  0  0  0  0
  1 29  1  0  0  0  0
  2  3  1  0  0  0  0
  3  4  1  0  0  0  0
  3 13  1  0  0  0  0
  4  5  1  0  0  0  0
  5  6  1  0  0  0  0
  6  7  1  0  0  0  0
  6 12  1  0  0  0  0
  7  8  1  0  0  0  0
  8  9  1  0  0  0  0
  8 23  1  0  0  0  0
  9 10  1  0  0  0  0
  9 17  1  0  0  0  0
 10 11  1  0  0  0  0
 11 12  1  0  0  0  0
 12 13  1  0  0  0  0
 13 14  1  0  0  0  0
 13 16  1  0  0  0  0
 14 15  1  0  0  0  0
 17 18  1  0  0  0  0
 17 21  1  0  0  0  0
 17 27  1  0  0  0  0
 18 19  1  0  0  0  0
 19 20  1  0  0  0  0
 19 26  1  0  0  0  0
 20 21  1  0  0  0  0
 20 31  1  0  0  0  0
 21 22  1  0  0  0  0
 21 25  1  0  0  0  0
 22 23  1  0  0  0  0
 23 24  1  0  0  0  0
 28 29  1  0  0  0  0
 29 30  1  0  0  0  0
 31 32  1  0  0  0  0
 31 34  1  0  0  0  0
 33 34  1  0  0  0  0
M  END
$$$$
