step2_200_2000_5.0_15568.xyz.gro
  PyMOL2.5          3D                             0

 34 38  0  0  0  0  0  0  0  0999 V2000
  -15.8639  207.2719  113.6116 C   0  0  0  0  0  0  0  0  0  0  0  0
  -15.7424  207.4112  114.9016 N   0  0  0  0  0  0  0  0  0  0  0  0
  -14.3716  207.6600  115.4302 C   0  0  0  0  0  0  0  0  0  0  0  0
  -14.2105  207.0392  116.8197 C   0  0  0  0  0  0  0  0  0  0  0  0
  -12.7900  207.0980  117.2982 C   0  0  0  0  0  0  0  0  0  0  0  0
  -11.7407  207.3476  116.5072 C   0  0  0  0  0  0  0  0  0  0  0  0
  -10.3500  207.3064  117.0956 C   0  0  0  0  0  0  0  0  0  0  0  0
   -9.3201  208.2460  116.4650 C   0  0  0  0  0  0  0  0  0  0  0  0
   -8.7319  207.6062  115.1940 C   0  0  0  0  0  0  0  0  0  0  0  0
   -9.6731  207.7274  114.0251 C   0  0  0  0  0  0  0  0  0  0  0  0
  -10.8735  206.8482  114.2160 C   0  0  0  0  0  0  0  0  0  0  0  0
  -11.9321  207.5685  115.0375 C   0  0  0  0  0  0  0  0  0  0  0  0
  -13.2930  207.1097  114.5388 C   0  0  0  0  0  0  0  0  0  0  0  0
  -13.5840  207.7405  113.1994 C   0  0  0  0  0  0  0  0  0  0  0  0
  -14.8349  207.3017  112.7105 O   0  0  0  0  0  0  0  0  0  0  0  0
  -13.3541  205.5798  114.4581 C   0  0  0  0  0  0  0  0  0  0  0  0
   -7.4319  208.2755  114.8329 C   0  0  0  0  0  0  0  0  0  0  0  0
   -6.7636  207.8056  113.5319 C   0  0  0  0  0  0  0  0  0  0  0  0
   -5.2632  208.0445  113.7304 C   0  0  0  0  0  0  0  0  0  0  0  0
   -5.0414  208.3636  115.2303 C   0  0  0  0  0  0  0  0  0  0  0  0
   -6.3908  208.0142  115.9216 C   0  0  0  0  0  0  0  0  0  0  0  0
   -6.7990  208.8239  117.1325 C   0  0  0  0  0  0  0  0  0  0  0  0
   -8.2587  208.5847  117.5140 C   0  0  0  0  0  0  0  0  0  0  0  0
   -8.6172  208.9544  118.6245 O   0  0  0  0  0  0  0  0  0  0  0  0
   -6.3814  206.5640  116.3409 C   0  0  0  0  0  0  0  0  0  0  0  0
   -4.8233  209.1446  112.9505 O   0  0  0  0  0  0  0  0  0  0  0  0
   -7.6610  209.7657  114.6539 C   0  0  0  0  0  0  0  0  0  0  0  0
  -18.2940  207.7938  113.2246 C   0  0  0  0  0  0  0  0  0  0  0  0
  -17.1449  206.8631  112.9229 C   0  0  0  0  0  0  0  0  0  0  0  0
  -17.5254  205.4632  113.3526 C   0  0  0  0  0  0  0  0  0  0  0  0
   -3.7413  207.7124  115.7386 C   0  0  0  0  0  0  0  0  0  0  0  0
   -2.5614  208.4719  115.1577 C   0  0  0  0  0  0  0  0  0  0  0  0
   -2.3326  205.6514  115.8560 C   0  0  0  0  0  0  0  0  0  0  0  0
   -3.5827  206.2625  115.3577 N   0  0  0  0  0  0  0  0  0  0  0  0
  1  2  1  0  0  0  0
  1 15  1  0  0  0  0
  1 29  1  0  0  0  0
  2  3  1  0  0  0  0
  3  4  1  0  0  0  0
  3 13  1  0  0  0  0
  4  5  1  0  0  0  0
  5  6  1  0  0  0  0
  6  7  1  0  0  0  0
  6 12  1  0  0  0  0
  7  8  1  0  0  0  0
  8  9  1  0  0  0  0
  8 23  1  0  0  0  0
  9 10  1  0  0  0  0
  9 17  1  0  0  0  0
 10 11  1  0  0  0  0
 11 12  1  0  0  0  0
 12 13  1  0  0  0  0
 13 14  1  0  0  0  0
 13 16  1  0  0  0  0
 14 15  1  0  0  0  0
 17 18  1  0  0  0  0
 17 21  1  0  0  0  0
 17 27  1  0  0  0  0
 18 19  1  0  0  0  0
 19 20  1  0  0  0  0
 19 26  1  0  0  0  0
 20 21  1  0  0  0  0
 20 31  1  0  0  0  0
 21 22  1  0  0  0  0
 21 25  1  0  0  0  0
 22 23  1  0  0  0  0
 23 24  1  0  0  0  0
 28 29  1  0  0  0  0
 29 30  1  0  0  0  0
 31 32  1  0  0  0  0
 31 34  1  0  0  0  0
 33 34  1  0  0  0  0
M  END
$$$$
