step2_200_2000_5.0_77285.xyz.gro
  PyMOL2.5          3D                             0

 34 38  0  0  0  0  0  0  0  0999 V2000
  -13.1861  205.1549  112.1952 C   0  0  0  0  0  0  0  0  0  0  0  0
  -13.5660  204.9349  113.4152 N   0  0  0  0  0  0  0  0  0  0  0  0
  -12.7958  205.7948  114.3452 C   0  0  0  0  0  0  0  0  0  0  0  0
  -13.2457  205.6248  115.7852 C   0  0  0  0  0  0  0  0  0  0  0  0
  -12.2955  206.2146  116.7751 C   0  0  0  0  0  0  0  0  0  0  0  0
  -11.0654  206.6144  116.4450 C   0  0  0  0  0  0  0  0  0  0  0  0
  -10.1352  207.1942  117.4549 C   0  0  0  0  0  0  0  0  0  0  0  0
   -9.4451  208.4641  116.9349 C   0  0  0  0  0  0  0  0  0  0  0  0
   -8.0852  208.1239  116.2748 C   0  0  0  0  0  0  0  0  0  0  0  0
   -8.2454  207.3740  114.9548 C   0  0  0  0  0  0  0  0  0  0  0  0
   -9.1156  206.1441  115.1848 C   0  0  0  0  0  0  0  0  0  0  0  0
  -10.5656  206.4744  115.0550 C   0  0  0  0  0  0  0  0  0  0  0  0
  -11.3358  205.4245  114.2150 C   0  0  0  0  0  0  0  0  0  0  0  0
  -10.9760  205.4545  112.7350 C   0  0  0  0  0  0  0  0  0  0  0  0
  -11.9162  204.7446  111.9351 O   0  0  0  0  0  0  0  0  0  0  0  0
  -11.1160  203.9945  114.6950 C   0  0  0  0  0  0  0  0  0  0  0  0
   -7.2650  209.4338  116.2247 C   0  0  0  0  0  0  0  0  0  0  0  0
   -5.8250  209.4135  115.7446 C   0  0  0  0  0  0  0  0  0  0  0  0
   -4.9248  210.3834  116.4745 C   0  0  0  0  0  0  0  0  0  0  0  0
   -5.8046  210.8335  117.6746 C   0  0  0  0  0  0  0  0  0  0  0  0
   -7.0648  209.8937  117.7147 C   0  0  0  0  0  0  0  0  0  0  0  0
   -8.3546  210.5239  118.1348 C   0  0  0  0  0  0  0  0  0  0  0  0
   -9.3648  209.4041  118.1349 C   0  0  0  0  0  0  0  0  0  0  0  0
   -9.8647  209.1041  119.2150 O   0  0  0  0  0  0  0  0  0  0  0  0
   -6.7049  208.6636  118.6047 C   0  0  0  0  0  0  0  0  0  0  0  0
   -4.5647  211.4633  115.6445 O   0  0  0  0  0  0  0  0  0  0  0  0
   -7.9649  210.4339  115.3048 C   0  0  0  0  0  0  0  0  0  0  0  0
  -12.8460  206.6848  110.2352 C   0  0  0  0  0  0  0  0  0  0  0  0
  -13.3359  206.5649  111.6552 C   0  0  0  0  0  0  0  0  0  0  0  0
  -14.7858  206.9951  111.7554 C   0  0  0  0  0  0  0  0  0  0  0  0
   -4.9545  210.8833  118.9345 C   0  0  0  0  0  0  0  0  0  0  0  0
   -5.7543  211.2734  120.1646 C   0  0  0  0  0  0  0  0  0  0  0  0
   -2.8442  211.9329  119.7344 C   0  0  0  0  0  0  0  0  0  0  0  0
   -3.9143  211.9032  118.7245 N   0  0  0  0  0  0  0  0  0  0  0  0
  1  2  1  0  0  0  0
  1 15  1  0  0  0  0
  1 29  1  0  0  0  0
  2  3  1  0  0  0  0
  3  4  1  0  0  0  0
  3 13  1  0  0  0  0
  4  5  1  0  0  0  0
  5  6  1  0  0  0  0
  6  7  1  0  0  0  0
  6 12  1  0  0  0  0
  7  8  1  0  0  0  0
  8  9  1  0  0  0  0
  8 23  1  0  0  0  0
  9 10  1  0  0  0  0
  9 17  1  0  0  0  0
 10 11  1  0  0  0  0
 11 12  1  0  0  0  0
 12 13  1  0  0  0  0
 13 14  1  0  0  0  0
 13 16  1  0  0  0  0
 14 15  1  0  0  0  0
 17 18  1  0  0  0  0
 17 21  1  0  0  0  0
 17 27  1  0  0  0  0
 18 19  1  0  0  0  0
 19 20  1  0  0  0  0
 19 26  1  0  0  0  0
 20 21  1  0  0  0  0
 20 31  1  0  0  0  0
 21 22  1  0  0  0  0
 21 25  1  0  0  0  0
 22 23  1  0  0  0  0
 23 24  1  0  0  0  0
 28 29  1  0  0  0  0
 29 30  1  0  0  0  0
 31 32  1  0  0  0  0
 31 34  1  0  0  0  0
 33 34  1  0  0  0  0
M  END
$$$$
