step2_200_2000_5.0_2177.xyz.gro
  PyMOL2.5          3D                             0

 34 38  0  0  0  0  0  0  0  0999 V2000
  -15.4803  206.5779  116.8523 C   0  0  0  0  0  0  0  0  0  0  0  0
  -14.7095  206.8674  117.8719 N   0  0  0  0  0  0  0  0  0  0  0  0
  -13.2797  207.1274  117.6009 C   0  0  0  0  0  0  0  0  0  0  0  0
  -12.4488  206.7469  118.8201 C   0  0  0  0  0  0  0  0  0  0  0  0
  -10.9790  206.8069  118.5390 C   0  0  0  0  0  0  0  0  0  0  0  0
  -10.4600  206.8274  117.3086 C   0  0  0  0  0  0  0  0  0  0  0  0
   -9.0002  207.0474  117.0575 C   0  0  0  0  0  0  0  0  0  0  0  0
   -8.6511  207.7879  115.7476 C   0  0  0  0  0  0  0  0  0  0  0  0
   -8.5921  206.7884  114.5771 C   0  0  0  0  0  0  0  0  0  0  0  0
   -9.9625  206.4487  114.0480 C   0  0  0  0  0  0  0  0  0  0  0  0
  -10.8118  205.7683  115.0784 C   0  0  0  0  0  0  0  0  0  0  0  0
  -11.3409  206.7779  116.1092 C   0  0  0  0  0  0  0  0  0  0  0  0
  -12.7807  206.3579  116.4202 C   0  0  0  0  0  0  0  0  0  0  0  0
  -13.7015  206.7684  115.2910 C   0  0  0  0  0  0  0  0  0  0  0  0
  -15.0514  206.4084  115.5619 O   0  0  0  0  0  0  0  0  0  0  0  0
  -12.8606  204.8478  116.6796 C   0  0  0  0  0  0  0  0  0  0  0  0
   -7.7529  207.2988  113.4267 C   0  0  0  0  0  0  0  0  0  0  0  0
   -7.4438  206.2092  112.3660 C   0  0  0  0  0  0  0  0  0  0  0  0
   -5.9541  206.3993  111.9949 C   0  0  0  0  0  0  0  0  0  0  0  0
   -5.5935  207.7590  112.6052 C   0  0  0  0  0  0  0  0  0  0  0  0
   -6.3525  207.6985  113.9558 C   0  0  0  0  0  0  0  0  0  0  0  0
   -6.4917  208.9281  114.8364 C   0  0  0  0  0  0  0  0  0  0  0  0
   -7.3609  208.5577  116.0069 C   0  0  0  0  0  0  0  0  0  0  0  0
   -7.0400  208.9372  117.1268 O   0  0  0  0  0  0  0  0  0  0  0  0
   -5.7519  206.5881  114.8348 C   0  0  0  0  0  0  0  0  0  0  0  0
   -5.7352  206.3499  110.5947 O   0  0  0  0  0  0  0  0  0  0  0  0
   -8.4334  208.4892  112.6877 C   0  0  0  0  0  0  0  0  0  0  0  0
  -17.6612  205.8985  115.7637 C   0  0  0  0  0  0  0  0  0  0  0  0
  -16.9402  206.2279  117.0633 C   0  0  0  0  0  0  0  0  0  0  0  0
  -17.6496  207.3877  117.7343 C   0  0  0  0  0  0  0  0  0  0  0  0
   -4.1736  208.2990  112.4643 C   0  0  0  0  0  0  0  0  0  0  0  0
   -3.8547  208.4296  110.9841 C   0  0  0  0  0  0  0  0  0  0  0  0
   -2.7221  207.6781  114.4330 C   0  0  0  0  0  0  0  0  0  0  0  0
   -3.0732  207.4887  113.0232 N   0  0  0  0  0  0  0  0  0  0  0  0
  1  2  1  0  0  0  0
  1 15  1  0  0  0  0
  1 29  1  0  0  0  0
  2  3  1  0  0  0  0
  3  4  1  0  0  0  0
  3 13  1  0  0  0  0
  4  5  1  0  0  0  0
  5  6  1  0  0  0  0
  6  7  1  0  0  0  0
  6 12  1  0  0  0  0
  7  8  1  0  0  0  0
  8  9  1  0  0  0  0
  8 23  1  0  0  0  0
  9 10  1  0  0  0  0
  9 17  1  0  0  0  0
 10 11  1  0  0  0  0
 11 12  1  0  0  0  0
 12 13  1  0  0  0  0
 13 14  1  0  0  0  0
 13 16  1  0  0  0  0
 14 15  1  0  0  0  0
 17 18  1  0  0  0  0
 17 21  1  0  0  0  0
 17 27  1  0  0  0  0
 18 19  1  0  0  0  0
 19 20  1  0  0  0  0
 19 26  1  0  0  0  0
 20 21  1  0  0  0  0
 20 31  1  0  0  0  0
 21 22  1  0  0  0  0
 21 25  1  0  0  0  0
 22 23  1  0  0  0  0
 23 24  1  0  0  0  0
 28 29  1  0  0  0  0
 29 30  1  0  0  0  0
 31 32  1  0  0  0  0
 31 34  1  0  0  0  0
 33 34  1  0  0  0  0
M  END
$$$$
