step2_200_2000_5.0_41842.xyz.gro
  PyMOL2.5          3D                             0

 34 38  0  0  0  0  0  0  0  0999 V2000
  -14.4619  206.5709  112.9143 C   0  0  0  0  0  0  0  0  0  0  0  0
  -14.4919  207.3810  113.9243 N   0  0  0  0  0  0  0  0  0  0  0  0
  -13.1819  207.7310  114.5343 C   0  0  0  0  0  0  0  0  0  0  0  0
  -13.3720  208.1612  115.9842 C   0  0  0  0  0  0  0  0  0  0  0  0
  -12.1220  208.1312  116.8043 C   0  0  0  0  0  0  0  0  0  0  0  0
  -10.9620  207.5912  116.3844 C   0  0  0  0  0  0  0  0  0  0  0  0
   -9.7820  207.5013  117.3144 C   0  0  0  0  0  0  0  0  0  0  0  0
   -8.4520  207.9312  116.7044 C   0  0  0  0  0  0  0  0  0  0  0  0
   -7.7320  206.7511  116.0145 C   0  0  0  0  0  0  0  0  0  0  0  0
   -8.4619  206.2810  114.7746 C   0  0  0  0  0  0  0  0  0  0  0  0
   -9.8719  205.8111  115.0246 C   0  0  0  0  0  0  0  0  0  0  0  0
  -10.8419  206.9911  115.0144 C   0  0  0  0  0  0  0  0  0  0  0  0
  -12.2019  206.5710  114.4544 C   0  0  0  0  0  0  0  0  0  0  0  0
  -12.0919  206.3209  112.9744 C   0  0  0  0  0  0  0  0  0  0  0  0
  -13.3418  205.9708  112.4044 O   0  0  0  0  0  0  0  0  0  0  0  0
  -12.7119  205.3411  115.2045 C   0  0  0  0  0  0  0  0  0  0  0  0
   -6.3019  207.1711  115.6345 C   0  0  0  0  0  0  0  0  0  0  0  0
   -5.4019  206.1111  114.9847 C   0  0  0  0  0  0  0  0  0  0  0  0
   -3.9619  206.5311  115.3747 C   0  0  0  0  0  0  0  0  0  0  0  0
   -4.0720  207.7412  116.3246 C   0  0  0  0  0  0  0  0  0  0  0  0
   -5.5020  207.5912  116.8945 C   0  0  0  0  0  0  0  0  0  0  0  0
   -6.1520  208.8113  117.5044 C   0  0  0  0  0  0  0  0  0  0  0  0
   -7.5720  208.4513  117.8344 C   0  0  0  0  0  0  0  0  0  0  0  0
   -8.0021  208.5914  118.9744 O   0  0  0  0  0  0  0  0  0  0  0  0
   -5.4520  206.4513  117.9146 C   0  0  0  0  0  0  0  0  0  0  0  0
   -3.1719  206.8910  114.2547 O   0  0  0  0  0  0  0  0  0  0  0  0
   -6.3619  208.3110  114.6244 C   0  0  0  0  0  0  0  0  0  0  0  0
  -16.9318  206.8108  112.2842 C   0  0  0  0  0  0  0  0  0  0  0  0
  -15.7118  205.9108  112.3344 C   0  0  0  0  0  0  0  0  0  0  0  0
  -16.0019  204.6909  113.1745 C   0  0  0  0  0  0  0  0  0  0  0  0
   -2.9020  207.7213  117.3046 C   0  0  0  0  0  0  0  0  0  0  0  0
   -2.9620  208.8214  118.3345 C   0  0  0  0  0  0  0  0  0  0  0  0
   -1.2720  209.2612  116.1745 C   0  0  0  0  0  0  0  0  0  0  0  0
   -1.6420  207.8712  116.5046 N   0  0  0  0  0  0  0  0  0  0  0  0
  1  2  1  0  0  0  0
  1 15  1  0  0  0  0
  1 29  1  0  0  0  0
  2  3  1  0  0  0  0
  3  4  1  0  0  0  0
  3 13  1  0  0  0  0
  4  5  1  0  0  0  0
  5  6  1  0  0  0  0
  6  7  1  0  0  0  0
  6 12  1  0  0  0  0
  7  8  1  0  0  0  0
  8  9  1  0  0  0  0
  8 23  1  0  0  0  0
  9 10  1  0  0  0  0
  9 17  1  0  0  0  0
 10 11  1  0  0  0  0
 11 12  1  0  0  0  0
 12 13  1  0  0  0  0
 13 14  1  0  0  0  0
 13 16  1  0  0  0  0
 14 15  1  0  0  0  0
 17 18  1  0  0  0  0
 17 21  1  0  0  0  0
 17 27  1  0  0  0  0
 18 19  1  0  0  0  0
 19 20  1  0  0  0  0
 19 26  1  0  0  0  0
 20 21  1  0  0  0  0
 20 31  1  0  0  0  0
 21 22  1  0  0  0  0
 21 25  1  0  0  0  0
 22 23  1  0  0  0  0
 23 24  1  0  0  0  0
 28 29  1  0  0  0  0
 29 30  1  0  0  0  0
 31 32  1  0  0  0  0
 31 34  1  0  0  0  0
 33 34  1  0  0  0  0
M  END
$$$$
