data/CDK2/cocry_dataset/1aq1_STU_LIG.pdb
 OpenBabel03092320563D

 59 66  0  0  1  0  0  0  0  0999 V2000
   -0.6953   -1.1884    0.3872 O   0  0  0  0  0  0  0  0  0  0  0  0
   -0.8346   -0.4916    1.6267 C   0  0  2  0  0  0  0  0  0  0  0  0
   -0.5881    1.0244    1.3197 C   0  0  0  0  0  0  0  0  0  0  0  0
    0.5609    1.2996    0.3124 C   0  0  2  0  0  0  0  0  0  0  0  0
    1.5383    0.1025    0.3330 C   0  0  2  0  0  0  0  0  0  0  0  0
    0.6567   -1.1762   -0.1360 C   0  0  2  0  0  0  0  0  0  0  0  0
    0.4188   -1.0857   -1.6546 C   0  0  0  0  0  0  0  0  0  0  0  0
    1.2069   -2.4551    0.2769 N   0  0  0  0  0  0  0  0  0  0  0  0
    1.3153   -2.8755    1.5646 C   0  0  0  0  0  0  0  0  0  0  0  0
    0.8203   -2.1901    2.6613 C   0  0  0  0  0  0  0  0  0  0  0  0
    1.5568   -2.4642    3.8283 C   0  0  0  0  0  0  0  0  0  0  0  0
    2.4979   -3.4429    4.1381 C   0  0  0  0  0  0  0  0  0  0  0  0
    2.7875   -4.3062    3.0823 C   0  0  0  0  0  0  0  0  0  0  0  0
    2.1857   -3.9285    1.8642 C   0  0  0  0  0  0  0  0  0  0  0  0
    2.6002   -4.3385    0.5828 C   0  0  0  0  0  0  0  0  0  0  0  0
    1.9942   -3.4331   -0.3807 C   0  0  0  0  0  0  0  0  0  0  0  0
    2.2731   -3.6189   -1.7513 C   0  0  0  0  0  0  0  0  0  0  0  0
    3.1256   -4.6418   -2.1738 C   0  0  0  0  0  0  0  0  0  0  0  0
    3.7137   -5.4967   -1.2601 C   0  0  0  0  0  0  0  0  0  0  0  0
    3.4625   -5.3525    0.1051 C   0  0  0  0  0  0  0  0  0  0  0  0
    3.7145   -5.2137    3.6035 C   0  0  0  0  0  0  0  0  0  0  0  0
    3.9983   -4.9699    4.8440 N   0  0  0  0  0  0  0  0  0  0  0  0
    3.2711   -3.8439    5.2758 C   0  0  0  0  0  0  0  0  0  0  0  0
    3.3491   -3.3748    6.4036 O   0  0  0  0  0  0  0  0  0  0  0  0
    1.1885   -1.3832    4.6245 C   0  0  0  0  0  0  0  0  0  0  0  0
   -0.0450   -0.8663    4.0758 C   0  0  0  0  0  0  0  0  0  0  0  0
   -0.9350   -0.2340    4.9555 C   0  0  0  0  0  0  0  0  0  0  0  0
   -0.4422    0.1640    6.2111 C   0  0  0  0  0  0  0  0  0  0  0  0
    0.9061    0.0397    6.5359 C   0  0  0  0  0  0  0  0  0  0  0  0
    1.7309   -0.7556    5.7552 C   0  0  0  0  0  0  0  0  0  0  0  0
   -0.0961   -1.1649    2.6915 N   0  0  0  0  0  0  0  0  0  0  0  0
    2.1480   -0.1131    1.6174 O   0  0  0  0  0  0  0  0  0  0  0  0
    2.7598    0.9381    2.3363 C   0  0  0  0  0  0  0  0  0  0  0  0
    1.2600    2.5932    0.4401 N   0  0  0  0  0  0  0  0  0  0  0  0
    0.5925    3.7438   -0.1407 C   0  0  0  0  0  0  0  0  0  0  0  0
   -1.8883   -0.5943    1.9235 H   0  0  0  0  0  0  0  0  0  0  0  0
   -0.5014    1.6220    2.2313 H   0  0  0  0  0  0  0  0  0  0  0  0
   -1.4934    1.3920    0.8025 H   0  0  0  0  0  0  0  0  0  0  0  0
    0.1298    1.3235   -0.6942 H   0  0  0  0  0  0  0  0  0  0  0  0
    2.3702    0.2351   -0.3678 H   0  0  0  0  0  0  0  0  0  0  0  0
   -0.2724   -0.2785   -1.9175 H   0  0  0  0  0  0  0  0  0  0  0  0
   -0.0650   -1.9920   -2.0352 H   0  0  0  0  0  0  0  0  0  0  0  0
    1.3528   -0.9117   -2.1979 H   0  0  0  0  0  0  0  0  0  0  0  0
    1.8378   -2.9954   -2.5203 H   0  0  0  0  0  0  0  0  0  0  0  0
    3.3306   -4.7569   -3.2370 H   0  0  0  0  0  0  0  0  0  0  0  0
    4.3758   -6.2870   -1.5999 H   0  0  0  0  0  0  0  0  0  0  0  0
    3.9354   -6.0487    0.7900 H   0  0  0  0  0  0  0  0  0  0  0  0
    4.1220   -6.0349    3.0000 H   0  0  0  0  0  0  0  0  0  0  0  0
   -1.9858   -0.1073    4.7134 H   0  0  0  0  0  0  0  0  0  0  0  0
   -1.1135    0.6011    6.9460 H   0  0  0  0  0  0  0  0  0  0  0  0
    1.3107    0.4850    7.4402 H   0  0  0  0  0  0  0  0  0  0  0  0
    2.7686   -0.9220    6.0319 H   0  0  0  0  0  0  0  0  0  0  0  0
    2.0215    1.4586    2.9593 H   0  0  0  0  0  0  0  0  0  0  0  0
    3.2926    1.6342    1.6872 H   0  0  0  0  0  0  0  0  0  0  0  0
    3.4889    0.4979    3.0226 H   0  0  0  0  0  0  0  0  0  0  0  0
    1.4666    2.8007    1.4138 H   0  0  0  0  0  0  0  0  0  0  0  0
    0.2040    3.5486   -1.1447 H   0  0  0  0  0  0  0  0  0  0  0  0
    1.3244    4.5547   -0.2369 H   0  0  0  0  0  0  0  0  0  0  0  0
   -0.2142    4.0981    0.5055 H   0  0  0  0  0  0  0  0  0  0  0  0
  1  2  1  0  0  0  0
  1  6  1  0  0  0  0
  2  3  1  0  0  0  0
  2 31  1  0  0  0  0
  2 36  1  1  0  0  0
  3  4  1  0  0  0  0
  3 37  1  0  0  0  0
  3 38  1  0  0  0  0
  4  5  1  0  0  0  0
  4 34  1  0  0  0  0
  4 39  1  6  0  0  0
  5  6  1  0  0  0  0
  5 32  1  0  0  0  0
  5 40  1  6  0  0  0
  6  8  1  0  0  0  0
  6  7  1  6  0  0  0
  7 41  1  0  0  0  0
  7 42  1  0  0  0  0
  7 43  1  0  0  0  0
  8  9  1  0  0  0  0
  8 16  1  0  0  0  0
  9 10  1  0  0  0  0
  9 14  2  0  0  0  0
 10 11  2  0  0  0  0
 10 31  1  0  0  0  0
 11 12  1  0  0  0  0
 11 25  1  0  0  0  0
 12 13  2  0  0  0  0
 12 23  1  0  0  0  0
 13 14  1  0  0  0  0
 13 21  1  0  0  0  0
 14 15  1  0  0  0  0
 15 16  1  0  0  0  0
 15 20  2  0  0  0  0
 16 17  2  0  0  0  0
 17 18  1  0  0  0  0
 17 44  1  0  0  0  0
 18 19  2  0  0  0  0
 18 45  1  0  0  0  0
 19 20  1  0  0  0  0
 19 46  1  0  0  0  0
 20 47  1  0  0  0  0
 21 22  2  0  0  0  0
 21 48  1  0  0  0  0
 22 23  1  0  0  0  0
 23 24  2  0  0  0  0
 25 26  1  0  0  0  0
 25 30  2  0  0  0  0
 26 27  2  0  0  0  0
 26 31  1  0  0  0  0
 27 28  1  0  0  0  0
 27 49  1  0  0  0  0
 28 29  2  0  0  0  0
 28 50  1  0  0  0  0
 29 30  1  0  0  0  0
 29 51  1  0  0  0  0
 30 52  1  0  0  0  0
 32 33  1  0  0  0  0
 33 53  1  0  0  0  0
 33 54  1  0  0  0  0
 33 55  1  0  0  0  0
 34 35  1  0  0  0  0
 34 56  1  0  0  0  0
 35 57  1  0  0  0  0
 35 58  1  0  0  0  0
 35 59  1  0  0  0  0
M  END
$$$$
