data/CDK2/cocry_dataset/1b39_ATP_LIG.pdb
 OpenBabel03092320563D

 47 49  0  0  1  0  0  0  0  0999 V2000
    2.7418    4.0717    1.0617 P   0  0  0  0  0  0  0  0  0  0  0  0
    3.3590    5.4188    1.0966 O   0  0  0  0  0  0  0  0  0  0  0  0
    1.8482    3.7919   -0.2284 O   0  0  0  0  0  0  0  0  0  0  0  0
    1.6637    3.8816    2.2229 O   0  0  0  0  0  0  0  0  0  0  0  0
    3.6813    2.7865    1.2051 O   0  0  0  0  0  0  0  0  0  0  0  0
    4.6863    2.8098    2.6131 P   0  0  1  0  0  0  0  0  0  0  0  0
    5.0435    1.3420    2.2970 O   0  0  0  0  0  0  0  0  0  0  0  0
    5.8590    3.5265    1.7154 O   0  0  0  0  0  0  0  0  0  0  0  0
    5.6913    2.8332    4.0210 O   0  0  0  0  0  0  0  0  0  0  0  0
    5.7493    1.2495    4.7150 P   0  0  2  0  0  0  0  0  0  0  0  0
    4.2085    1.2602    4.8680 O   0  0  0  0  0  0  0  0  0  0  0  0
    6.0202    1.7198    6.2685 O   0  0  0  0  0  0  0  0  0  0  0  0
    7.4708    1.2376    4.5441 O   0  0  0  0  0  0  0  0  0  0  0  0
    7.9919    1.5565    3.2585 C   0  0  0  0  0  0  0  0  0  0  0  0
    9.5196    1.5133    3.2404 C   0  0  1  0  0  0  0  0  0  0  0  0
    9.9886    0.1608    3.4360 O   0  0  0  0  0  0  0  0  0  0  0  0
   10.6675   -0.2609    2.2392 C   0  0  2  0  0  0  0  0  0  0  0  0
   10.2711    0.6944    1.1167 C   0  0  1  0  0  0  0  0  0  0  0  0
   10.0711    1.9877    1.8887 C   0  0  2  0  0  0  0  0  0  0  0  0
   11.3559    2.6261    2.0037 O   0  0  0  0  0  0  0  0  0  0  0  0
   11.2867    0.8309    0.1220 O   0  0  0  0  0  0  0  0  0  0  0  0
   10.3757   -1.6511    1.9679 N   0  0  0  0  0  0  0  0  0  0  0  0
   11.3311   -2.6280    1.8261 C   0  0  0  0  0  0  0  0  0  0  0  0
   10.8157   -3.7663    1.4147 N   0  0  0  0  0  0  0  0  0  0  0  0
    9.4666   -3.5169    1.2982 C   0  0  0  0  0  0  0  0  0  0  0  0
    8.3934   -4.3152    0.8634 C   0  0  0  0  0  0  0  0  0  0  0  0
    8.5615   -5.5975    0.3740 N   0  0  0  0  0  0  0  0  0  0  0  0
    7.1444   -3.7973    0.9090 N   0  0  0  0  0  0  0  0  0  0  0  0
    6.9933   -2.5232    1.3271 C   0  0  0  0  0  0  0  0  0  0  0  0
    7.9457   -1.6453    1.7131 N   0  0  0  0  0  0  0  0  0  0  0  0
    9.1647   -2.2161    1.6810 C   0  0  0  0  0  0  0  0  0  0  0  0
    1.2440    4.5196   -0.4525 H   0  0  0  0  0  0  0  0  0  0  0  0
    1.2331    4.7229    2.4620 H   0  0  0  0  0  0  0  0  0  0  0  0
    6.2594    2.7902    1.2072 H   0  0  0  0  0  0  0  0  0  0  0  0
    5.6591    1.0555    6.8804 H   0  0  0  0  0  0  0  0  0  0  0  0
    7.7182    2.5842    3.0191 H   0  0  0  0  0  0  0  0  0  0  0  0
    7.5635    0.8740    2.5232 H   0  0  0  0  0  0  0  0  0  0  0  0
    9.9115    2.1121    4.0697 H   0  0  0  0  0  0  0  0  0  0  0  0
   11.7450   -0.1871    2.4383 H   0  0  0  0  0  0  0  0  0  0  0  0
    9.3406    0.3967    0.6234 H   0  0  0  0  0  0  0  0  0  0  0  0
    9.4188    2.6904    1.3606 H   0  0  0  0  0  0  0  0  0  0  0  0
   11.7101    2.4813    2.9002 H   0  0  0  0  0  0  0  0  0  0  0  0
   11.7708    1.6566    0.3402 H   0  0  0  0  0  0  0  0  0  0  0  0
   12.3793   -2.4471    2.0198 H   0  0  0  0  0  0  0  0  0  0  0  0
    9.4402   -6.0340    0.6395 H   0  0  0  0  0  0  0  0  0  0  0  0
    7.7186   -6.1539    0.4013 H   0  0  0  0  0  0  0  0  0  0  0  0
    5.9700   -2.1565    1.3536 H   0  0  0  0  0  0  0  0  0  0  0  0
  1  2  2  0  0  0  0
  1  3  1  0  0  0  0
  1  4  1  0  0  0  0
  1  5  1  0  0  0  0
  3 32  1  0  0  0  0
  4 33  1  0  0  0  0
  5  6  1  0  0  0  0
  6  7  2  6  0  0  0
  6  8  1  0  0  0  0
  6  9  1  0  0  0  0
  8 34  1  0  0  0  0
 10 12  1  0  0  0  0
 10 13  1  0  0  0  0
 10 11  2  6  0  0  0
 10  9  1  0  0  0  0
 12 35  1  0  0  0  0
 13 14  1  0  0  0  0
 14 15  1  0  0  0  0
 14 36  1  0  0  0  0
 14 37  1  0  0  0  0
 15 16  1  0  0  0  0
 15 19  1  0  0  0  0
 15 38  1  1  0  0  0
 16 17  1  0  0  0  0
 17 18  1  0  0  0  0
 17 22  1  0  0  0  0
 17 39  1  1  0  0  0
 18 19  1  0  0  0  0
 18 21  1  0  0  0  0
 18 40  1  6  0  0  0
 19 20  1  0  0  0  0
 19 41  1  6  0  0  0
 20 42  1  0  0  0  0
 21 43  1  0  0  0  0
 22 23  1  0  0  0  0
 22 31  1  0  0  0  0
 23 24  2  0  0  0  0
 23 44  1  0  0  0  0
 24 25  1  0  0  0  0
 25 26  1  0  0  0  0
 25 31  2  0  0  0  0
 26 27  1  0  0  0  0
 26 28  2  0  0  0  0
 27 45  1  0  0  0  0
 27 46  1  0  0  0  0
 28 29  1  0  0  0  0
 29 30  2  0  0  0  0
 29 47  1  0  0  0  0
 30 31  1  0  0  0  0
M  END
$$$$
