data/CDK2/cocry_dataset/1e1v_CMG_LIG.pdb
 OpenBabel03092320563D

 35 37  0  0  1  0  0  0  0  0999 V2000
    2.1572   -0.7442   -0.0655 N   0  0  0  0  0  0  0  0  0  0  0  0
    1.0918   -1.4477   -0.0063 C   0  0  0  0  0  0  0  0  0  0  0  0
   -0.2133   -0.8076    0.0759 C   0  0  0  0  0  0  0  0  0  0  0  0
   -1.4231   -1.2591    0.1661 N   0  0  0  0  0  0  0  0  0  0  0  0
   -2.1917   -0.0971    0.2427 C   0  0  0  0  0  0  0  0  0  0  0  0
   -1.5534    1.0379    0.2061 N   0  0  0  0  0  0  0  0  0  0  0  0
   -0.2566    0.6407    0.0970 C   0  0  0  0  0  0  0  0  0  0  0  0
    0.7829    1.3744    0.0489 N   0  0  0  0  0  0  0  0  0  0  0  0
    2.0717    0.7101   -0.0831 C   0  0  1  0  0  0  0  0  0  0  0  0
    2.8944    1.2112    0.9807 N   0  0  0  0  0  0  0  0  0  0  0  0
    1.0265   -2.7848    0.0129 O   0  0  0  0  0  0  0  0  0  0  0  0
    2.2704   -3.5002   -0.0877 C   0  0  0  0  0  0  0  0  0  0  0  0
    1.9599   -4.9994   -0.0145 C   0  0  0  0  0  0  0  0  0  0  0  0
    3.2376   -5.8448   -0.0806 C   0  0  0  0  0  0  0  0  0  0  0  0
    2.9140   -7.3326    0.0569 C   0  0  0  0  0  0  0  0  0  0  0  0
    1.8938   -7.7940   -0.9817 C   0  0  0  0  0  0  0  0  0  0  0  0
    0.6429   -6.9202   -0.9859 C   0  0  0  0  0  0  0  0  0  0  0  0
    0.9857   -5.4386   -1.1204 C   0  0  0  0  0  0  0  0  0  0  0  0
   -3.2867   -0.1608    0.3326 H   0  0  0  0  0  0  0  0  0  0  0  0
    2.5103    1.0428   -1.0318 H   0  0  0  0  0  0  0  0  0  0  0  0
    2.4825    0.8919    1.8507 H   0  0  0  0  0  0  0  0  0  0  0  0
    2.7705    2.2213    0.9812 H   0  0  0  0  0  0  0  0  0  0  0  0
    2.9191   -3.2152    0.7490 H   0  0  0  0  0  0  0  0  0  0  0  0
    2.7633   -3.2490   -1.0343 H   0  0  0  0  0  0  0  0  0  0  0  0
    1.4654   -5.1839    0.9496 H   0  0  0  0  0  0  0  0  0  0  0  0
    3.9313   -5.5493    0.7148 H   0  0  0  0  0  0  0  0  0  0  0  0
    3.7527   -5.6721   -1.0346 H   0  0  0  0  0  0  0  0  0  0  0  0
    2.5196   -7.5241    1.0627 H   0  0  0  0  0  0  0  0  0  0  0  0
    3.8321   -7.9224   -0.0424 H   0  0  0  0  0  0  0  0  0  0  0  0
    1.6124   -8.8345   -0.7833 H   0  0  0  0  0  0  0  0  0  0  0  0
    2.3540   -7.7719   -1.9769 H   0  0  0  0  0  0  0  0  0  0  0  0
    0.0854   -7.0776   -0.0540 H   0  0  0  0  0  0  0  0  0  0  0  0
   -0.0173   -7.2226   -1.8064 H   0  0  0  0  0  0  0  0  0  0  0  0
    0.0587   -4.8560   -1.0757 H   0  0  0  0  0  0  0  0  0  0  0  0
    1.4319   -5.2526   -2.1061 H   0  0  0  0  0  0  0  0  0  0  0  0
  1  2  2  0  0  0  0
  1  9  1  0  0  0  0
  2  3  1  0  0  0  0
  2 11  1  0  0  0  0
  3  4  2  0  0  0  0
  3  7  1  0  0  0  0
  4  5  1  0  0  0  0
  5  6  2  0  0  0  0
  5 19  1  0  0  0  0
  6  7  1  0  0  0  0
  7  8  2  0  0  0  0
  8  9  1  0  0  0  0
  9 10  1  0  0  0  0
  9 20  1  6  0  0  0
 10 21  1  0  0  0  0
 10 22  1  0  0  0  0
 11 12  1  0  0  0  0
 12 13  1  0  0  0  0
 12 23  1  0  0  0  0
 12 24  1  0  0  0  0
 13 14  1  0  0  0  0
 13 18  1  0  0  0  0
 13 25  1  0  0  0  0
 14 15  1  0  0  0  0
 14 26  1  0  0  0  0
 14 27  1  0  0  0  0
 15 16  1  0  0  0  0
 15 28  1  0  0  0  0
 15 29  1  0  0  0  0
 16 17  1  0  0  0  0
 16 30  1  0  0  0  0
 16 31  1  0  0  0  0
 17 18  1  0  0  0  0
 17 32  1  0  0  0  0
 17 33  1  0  0  0  0
 18 34  1  0  0  0  0
 18 35  1  0  0  0  0
M  END
$$$$
