data/CDK2/cocry_dataset/1e1x_NW1_LIG.pdb
 OpenBabel03092320563D

 35 36  0  0  0  0  0  0  0  0999 V2000
    0.3274   -1.4539   -0.1738 N   0  0  0  0  0  0  0  0  0  0  0  0
    1.2277   -0.5343   -0.2594 C   0  0  0  0  0  0  0  0  0  0  0  0
    2.5538   -0.8014   -0.2014 O   0  0  0  0  0  0  0  0  0  0  0  0
    2.9128   -2.1939   -0.0211 C   0  0  0  0  0  0  0  0  0  0  0  0
    4.4403   -2.4085    0.0222 C   0  0  0  0  0  0  0  0  0  0  0  0
    4.7533   -3.9049    0.2267 C   0  0  0  0  0  0  0  0  0  0  0  0
    6.2511   -4.1832    0.3489 C   0  0  0  0  0  0  0  0  0  0  0  0
    6.8892   -3.3259    1.4361 C   0  0  0  0  0  0  0  0  0  0  0  0
    6.6108   -1.8446    1.2066 C   0  0  0  0  0  0  0  0  0  0  0  0
    5.1109   -1.5590    1.1114 C   0  0  0  0  0  0  0  0  0  0  0  0
    0.8465    0.9227   -0.4223 C   0  0  0  0  0  0  0  0  0  0  0  0
    1.7570    1.8535   -0.5542 N   0  0  0  0  0  0  0  0  0  0  0  0
    1.2132    3.1416   -0.7009 O   0  0  0  0  0  0  0  0  0  0  0  0
   -0.6507    1.1156   -0.4164 C   0  0  0  0  0  0  0  0  0  0  0  0
   -1.2219    2.2789   -0.4977 N   0  0  0  0  0  0  0  0  0  0  0  0
   -1.4891    0.0481   -0.3347 N   0  0  0  0  0  0  0  0  0  0  0  0
   -0.9951   -1.1391   -0.2556 C   0  0  0  0  0  0  0  0  0  0  0  0
   -1.8492   -2.1873   -0.2437 N   0  0  0  0  0  0  0  0  0  0  0  0
    2.5090   -2.7800   -0.8584 H   0  0  0  0  0  0  0  0  0  0  0  0
    2.4709   -2.5623    0.9146 H   0  0  0  0  0  0  0  0  0  0  0  0
    4.8571   -2.0924   -0.9436 H   0  0  0  0  0  0  0  0  0  0  0  0
    4.3485   -4.4912   -0.6069 H   0  0  0  0  0  0  0  0  0  0  0  0
    4.2562   -4.2677    1.1363 H   0  0  0  0  0  0  0  0  0  0  0  0
    6.7406   -3.9848   -0.6124 H   0  0  0  0  0  0  0  0  0  0  0  0
    6.4126   -5.2429    0.5749 H   0  0  0  0  0  0  0  0  0  0  0  0
    7.9711   -3.5022    1.4574 H   0  0  0  0  0  0  0  0  0  0  0  0
    6.4972   -3.6255    2.4154 H   0  0  0  0  0  0  0  0  0  0  0  0
    7.1029   -1.5207    0.2811 H   0  0  0  0  0  0  0  0  0  0  0  0
    7.0468   -1.2575    2.0227 H   0  0  0  0  0  0  0  0  0  0  0  0
    4.9651   -0.4940    0.9006 H   0  0  0  0  0  0  0  0  0  0  0  0
    4.6434   -1.7610    2.0835 H   0  0  0  0  0  0  0  0  0  0  0  0
    2.0043    3.7093   -0.8008 H   0  0  0  0  0  0  0  0  0  0  0  0
   -0.4733    2.9862   -0.5764 H   0  0  0  0  0  0  0  0  0  0  0  0
   -2.7985   -1.9419    0.0204 H   0  0  0  0  0  0  0  0  0  0  0  0
   -1.4883   -3.0420    0.1497 H   0  0  0  0  0  0  0  0  0  0  0  0
  1  2  2  0  0  0  0
  1 17  1  0  0  0  0
  2  3  1  0  0  0  0
  2 11  1  0  0  0  0
  3  4  1  0  0  0  0
  4  5  1  0  0  0  0
  4 19  1  0  0  0  0
  4 20  1  0  0  0  0
  5  6  1  0  0  0  0
  5 10  1  0  0  0  0
  5 21  1  0  0  0  0
  6  7  1  0  0  0  0
  6 22  1  0  0  0  0
  6 23  1  0  0  0  0
  7  8  1  0  0  0  0
  7 24  1  0  0  0  0
  7 25  1  0  0  0  0
  8  9  1  0  0  0  0
  8 26  1  0  0  0  0
  8 27  1  0  0  0  0
  9 10  1  0  0  0  0
  9 28  1  0  0  0  0
  9 29  1  0  0  0  0
 10 30  1  0  0  0  0
 10 31  1  0  0  0  0
 11 12  2  0  0  0  0
 11 14  1  0  0  0  0
 12 13  1  0  0  0  0
 13 32  1  0  0  0  0
 14 15  2  0  0  0  0
 14 16  1  0  0  0  0
 15 33  1  0  0  0  0
 16 17  2  0  0  0  0
 17 18  1  0  0  0  0
 18 34  1  0  0  0  0
 18 35  1  0  0  0  0
M  END
$$$$
