data/CDK2/cocry_dataset/1e9h_INR_LIG.pdb
 OpenBabel03092320563D

 36 39  0  0  1  0  0  0  0  0999 V2000
   -3.9648   -2.1700   -2.8181 C   0  0  0  0  0  0  0  0  0  0  0  0
   -5.3264   -2.3795   -2.6015 C   0  0  0  0  0  0  0  0  0  0  0  0
   -6.1189   -3.1650   -3.4140 C   0  0  0  0  0  0  0  0  0  0  0  0
   -5.4948   -3.7672   -4.5089 C   0  0  0  0  0  0  0  0  0  0  0  0
   -4.1218   -3.5669   -4.7530 C   0  0  0  0  0  0  0  0  0  0  0  0
   -3.3483   -2.7651   -3.9027 C   0  0  0  0  0  0  0  0  0  0  0  0
   -5.6404   -1.5929   -1.4184 C   0  0  0  0  0  0  0  0  0  0  0  0
   -6.7071   -1.3913   -0.8934 O   0  0  0  0  0  0  0  0  0  0  0  0
   -4.2906   -0.9973   -1.0247 C   0  0  0  0  0  0  0  0  0  0  0  0
   -3.3470   -1.3311   -1.8683 N   0  0  0  0  0  0  0  0  0  0  0  0
   -4.1211   -0.1094    0.1477 C   0  0  2  0  0  0  0  0  0  0  0  0
   -5.0044   -0.4312    1.3530 C   0  0  0  0  0  0  0  0  0  0  0  0
   -5.1008   -1.5078    1.9168 O   0  0  0  0  0  0  0  0  0  0  0  0
   -5.6448    0.7477    1.7307 N   0  0  0  0  0  0  0  0  0  0  0  0
   -5.3166    1.7943    0.8850 C   0  0  0  0  0  0  0  0  0  0  0  0
   -4.4472    1.3394   -0.1073 C   0  0  0  0  0  0  0  0  0  0  0  0
   -3.9488    2.2080   -1.0596 C   0  0  0  0  0  0  0  0  0  0  0  0
   -4.3338    3.5472   -0.9668 C   0  0  0  0  0  0  0  0  0  0  0  0
   -5.2095    4.0058    0.0306 C   0  0  0  0  0  0  0  0  0  0  0  0
   -5.7211    3.1109    0.9748 C   0  0  0  0  0  0  0  0  0  0  0  0
   -3.6561    4.6742   -2.0819 S   0  0  0  0  0  0  0  0  0  0  0  0
   -3.3295    3.9793   -3.4877 O   0  0  0  0  0  0  0  0  0  0  0  0
   -4.6259    5.9110   -2.3902 O   0  0  0  0  0  0  0  0  0  0  0  0
   -2.2724    5.2621   -1.5370 O   0  0  0  0  0  0  0  0  0  0  0  0
   -7.1738   -3.3069   -3.2103 H   0  0  0  0  0  0  0  0  0  0  0  0
   -6.0719   -4.3967   -5.1840 H   0  0  0  0  0  0  0  0  0  0  0  0
   -3.6539   -4.0423   -5.6138 H   0  0  0  0  0  0  0  0  0  0  0  0
   -2.2907   -2.6103   -4.0901 H   0  0  0  0  0  0  0  0  0  0  0  0
   -3.0796   -0.1675    0.4905 H   0  0  0  0  0  0  0  0  0  0  0  0
   -6.2667    0.8008    2.5247 H   0  0  0  0  0  0  0  0  0  0  0  0
   -3.2503    1.8728   -1.8211 H   0  0  0  0  0  0  0  0  0  0  0  0
   -5.4599    5.0627    0.0954 H   0  0  0  0  0  0  0  0  0  0  0  0
   -6.3789    3.4545    1.7652 H   0  0  0  0  0  0  0  0  0  0  0  0
   -4.0751    3.9772   -4.1279 H   0  0  0  0  0  0  0  0  0  0  0  0
   -5.5544    5.6863   -2.6141 H   0  0  0  0  0  0  0  0  0  0  0  0
   -1.4913    4.7443   -1.8342 H   0  0  0  0  0  0  0  0  0  0  0  0
  1  2  1  0  0  0  0
  1  6  2  0  0  0  0
  1 10  1  0  0  0  0
  2  3  2  0  0  0  0
  2  7  1  0  0  0  0
  3  4  1  0  0  0  0
  3 25  1  0  0  0  0
  4  5  2  0  0  0  0
  4 26  1  0  0  0  0
  5  6  1  0  0  0  0
  5 27  1  0  0  0  0
  6 28  1  0  0  0  0
  7  8  2  0  0  0  0
  7  9  1  0  0  0  0
  9 10  2  0  0  0  0
 11 12  1  0  0  0  0
 11 16  1  0  0  0  0
 11  9  1  0  0  0  0
 11 29  1  1  0  0  0
 12 13  2  0  0  0  0
 12 14  1  0  0  0  0
 14 15  1  0  0  0  0
 14 30  1  0  0  0  0
 15 16  1  0  0  0  0
 15 20  2  0  0  0  0
 16 17  2  0  0  0  0
 17 18  1  0  0  0  0
 17 31  1  0  0  0  0
 18 19  2  0  0  0  0
 18 21  1  0  0  0  0
 19 20  1  0  0  0  0
 19 32  1  0  0  0  0
 20 33  1  0  0  0  0
 21 22  1  0  0  0  0
 21 23  1  0  0  0  0
 21 24  1  0  0  0  0
 22 34  1  0  0  0  0
 23 35  1  0  0  0  0
 24 36  1  0  0  0  0
M  END
$$$$
