data/CDK2/cocry_dataset/1fin_ATP_LIG.pdb
 OpenBabel03092320563D

 47 49  0  0  1  0  0  0  0  0999 V2000
    1.4403    0.1896   -1.9778 P   0  0  0  0  0  0  0  0  0  0  0  0
    0.2263    0.5379   -1.1867 O   0  0  0  0  0  0  0  0  0  0  0  0
    1.2943    0.3591   -3.5526 O   0  0  0  0  0  0  0  0  0  0  0  0
    1.7180   -1.3817   -1.8965 O   0  0  0  0  0  0  0  0  0  0  0  0
    2.8187    0.9136   -1.5431 O   0  0  0  0  0  0  0  0  0  0  0  0
    2.3888    1.7432   -0.0872 P   0  0  1  0  0  0  0  0  0  0  0  0
    3.7904    1.4824    0.4669 O   0  0  0  0  0  0  0  0  0  0  0  0
    2.5053    3.1440   -0.9218 O   0  0  0  0  0  0  0  0  0  0  0  0
    1.9588    2.5727    1.3688 O   0  0  0  0  0  0  0  0  0  0  0  0
    2.3743    4.0824    1.6739 P   0  0  2  0  0  0  0  0  0  0  0  0
    3.5612    4.6338    0.9430 O   0  0  0  0  0  0  0  0  0  0  0  0
    2.6429    4.0930    3.2549 O   0  0  0  0  0  0  0  0  0  0  0  0
    1.0242    4.9475    1.5485 O   0  0  0  0  0  0  0  0  0  0  0  0
    1.0799    6.1758    0.8298 C   0  0  0  0  0  0  0  0  0  0  0  0
   -0.3053    6.8379    0.8206 C   0  0  1  0  0  0  0  0  0  0  0  0
   -0.6770    7.2497    2.1564 O   0  0  0  0  0  0  0  0  0  0  0  0
   -0.9637    8.6594    2.1525 C   0  0  2  0  0  0  0  0  0  0  0  0
   -0.3479    9.2561    0.8905 C   0  0  1  0  0  0  0  0  0  0  0  0
   -0.3646    8.0807   -0.0751 C   0  0  2  0  0  0  0  0  0  0  0  0
   -1.5752    8.1360   -0.8489 O   0  0  0  0  0  0  0  0  0  0  0  0
   -1.0983   10.3706    0.4046 O   0  0  0  0  0  0  0  0  0  0  0  0
   -0.4782    9.2512    3.3821 N   0  0  0  0  0  0  0  0  0  0  0  0
   -1.2495    9.8719    4.3310 C   0  0  0  0  0  0  0  0  0  0  0  0
   -0.5220   10.3718    5.3089 N   0  0  0  0  0  0  0  0  0  0  0  0
    0.7817   10.0860    4.9567 C   0  0  0  0  0  0  0  0  0  0  0  0
    2.0143   10.3823    5.5611 C   0  0  0  0  0  0  0  0  0  0  0  0
    2.1249   11.0915    6.7509 N   0  0  0  0  0  0  0  0  0  0  0  0
    3.1488    9.9536    4.9616 N   0  0  0  0  0  0  0  0  0  0  0  0
    3.0416    9.2812    3.7957 C   0  0  0  0  0  0  0  0  0  0  0  0
    1.9246    8.9391    3.1242 N   0  0  0  0  0  0  0  0  0  0  0  0
    0.8276    9.3744    3.7683 C   0  0  0  0  0  0  0  0  0  0  0  0
    1.9746   -0.1530   -4.0344 H   0  0  0  0  0  0  0  0  0  0  0  0
    0.8758   -1.8664   -1.7800 H   0  0  0  0  0  0  0  0  0  0  0  0
    3.4256    3.4843   -0.8191 H   0  0  0  0  0  0  0  0  0  0  0  0
    3.4937    4.5304    3.4433 H   0  0  0  0  0  0  0  0  0  0  0  0
    1.3820    5.9486   -0.1984 H   0  0  0  0  0  0  0  0  0  0  0  0
    1.8268    6.8272    1.2920 H   0  0  0  0  0  0  0  0  0  0  0  0
   -1.0494    6.0935    0.5140 H   0  0  0  0  0  0  0  0  0  0  0  0
   -2.0554    8.7728    2.1428 H   0  0  0  0  0  0  0  0  0  0  0  0
    0.6826    9.5876    1.0392 H   0  0  0  0  0  0  0  0  0  0  0  0
    0.4587    8.1358   -0.7931 H   0  0  0  0  0  0  0  0  0  0  0  0
   -2.3049    7.7534   -0.3282 H   0  0  0  0  0  0  0  0  0  0  0  0
   -1.4101   10.1260   -0.4910 H   0  0  0  0  0  0  0  0  0  0  0  0
   -2.3281    9.9416    4.2590 H   0  0  0  0  0  0  0  0  0  0  0  0
    1.2700   11.0863    7.2962 H   0  0  0  0  0  0  0  0  0  0  0  0
    2.9907   10.8923    7.2334 H   0  0  0  0  0  0  0  0  0  0  0  0
    3.9788    8.9819    3.3362 H   0  0  0  0  0  0  0  0  0  0  0  0
  1  2  2  0  0  0  0
  1  3  1  0  0  0  0
  1  4  1  0  0  0  0
  1  5  1  0  0  0  0
  3 32  1  0  0  0  0
  4 33  1  0  0  0  0
  5  6  1  0  0  0  0
  6  7  2  1  0  0  0
  6  8  1  0  0  0  0
  6  9  1  0  0  0  0
  8 34  1  0  0  0  0
 10 12  1  0  0  0  0
 10 13  1  0  0  0  0
 10 11  2  6  0  0  0
 10  9  1  0  0  0  0
 12 35  1  0  0  0  0
 13 14  1  0  0  0  0
 14 15  1  0  0  0  0
 14 36  1  0  0  0  0
 14 37  1  0  0  0  0
 15 16  1  0  0  0  0
 15 19  1  0  0  0  0
 15 38  1  6  0  0  0
 16 17  1  0  0  0  0
 17 18  1  0  0  0  0
 17 22  1  0  0  0  0
 17 39  1  6  0  0  0
 18 19  1  0  0  0  0
 18 21  1  0  0  0  0
 18 40  1  1  0  0  0
 19 20  1  0  0  0  0
 19 41  1  6  0  0  0
 20 42  1  0  0  0  0
 21 43  1  0  0  0  0
 22 23  1  0  0  0  0
 22 31  1  0  0  0  0
 23 24  2  0  0  0  0
 23 44  1  0  0  0  0
 24 25  1  0  0  0  0
 25 26  1  0  0  0  0
 25 31  2  0  0  0  0
 26 27  1  0  0  0  0
 26 28  2  0  0  0  0
 27 45  1  0  0  0  0
 27 46  1  0  0  0  0
 28 29  1  0  0  0  0
 29 30  2  0  0  0  0
 29 47  1  0  0  0  0
 30 31  1  0  0  0  0
M  END
$$$$
