data/HSP90/cocry_dataset/1byq_ADP_LIG.pdb
 OpenBabel03092320563D

 42 44  0  0  1  0  0  0  0  0999 V2000
    5.3628   -2.3536    0.8650 P   0  0  0  0  0  0  0  0  0  0  0  0
    4.4432   -2.3395    2.0840 O   0  0  0  0  0  0  0  0  0  0  0  0
    5.1651   -3.8681    0.2995 O   0  0  0  0  0  0  0  0  0  0  0  0
    6.6559   -2.9378    1.8547 O   0  0  0  0  0  0  0  0  0  0  0  0
    4.0697   -1.7694   -0.1247 O   0  0  0  0  0  0  0  0  0  0  0  0
    4.5271   -0.5825   -1.0982 P   0  0  2  0  0  0  0  0  0  0  0  0
    5.2309    0.5527   -0.4389 O   0  0  0  0  0  0  0  0  0  0  0  0
    3.1734   -0.1216   -1.8225 O   0  0  0  0  0  0  0  0  0  0  0  0
    5.3525   -1.2785   -2.2967 O   0  0  0  0  0  0  0  0  0  0  0  0
    4.6901   -2.3417   -2.9602 C   0  0  0  0  0  0  0  0  0  0  0  0
    5.4731   -2.9068   -4.1515 C   0  0  1  0  0  0  0  0  0  0  0  0
    6.7870   -3.3714   -3.7678 O   0  0  0  0  0  0  0  0  0  0  0  0
    6.7878   -4.8266   -3.7097 C   0  0  2  0  0  0  0  0  0  0  0  0
    5.3197   -5.2547   -3.8154 C   0  0  1  0  0  0  0  0  0  0  0  0
    4.7388   -4.1362   -4.6765 C   0  0  2  0  0  0  0  0  0  0  0  0
    5.0370   -4.4164   -6.0524 O   0  0  0  0  0  0  0  0  0  0  0  0
    5.1088   -6.5195   -4.4287 O   0  0  0  0  0  0  0  0  0  0  0  0
    7.4572   -5.2356   -2.4866 N   0  0  0  0  0  0  0  0  0  0  0  0
    7.6539   -4.4581   -1.3762 C   0  0  0  0  0  0  0  0  0  0  0  0
    8.2478   -5.1121   -0.4008 N   0  0  0  0  0  0  0  0  0  0  0  0
    8.5091   -6.3599   -0.9403 C   0  0  0  0  0  0  0  0  0  0  0  0
    9.1335   -7.5118   -0.4232 C   0  0  0  0  0  0  0  0  0  0  0  0
    9.6165   -7.5979    0.8764 N   0  0  0  0  0  0  0  0  0  0  0  0
    9.3011   -8.5782   -1.2345 N   0  0  0  0  0  0  0  0  0  0  0  0
    8.8250   -8.5062   -2.4979 C   0  0  0  0  0  0  0  0  0  0  0  0
    8.1848   -7.4796   -3.0949 N   0  0  0  0  0  0  0  0  0  0  0  0
    8.0617   -6.4383   -2.2510 C   0  0  0  0  0  0  0  0  0  0  0  0
    4.6303   -4.3322    0.9787 H   0  0  0  0  0  0  0  0  0  0  0  0
    7.3029   -3.4304    1.3082 H   0  0  0  0  0  0  0  0  0  0  0  0
    3.1736    0.8407   -1.9822 H   0  0  0  0  0  0  0  0  0  0  0  0
    3.7271   -1.9788   -3.3322 H   0  0  0  0  0  0  0  0  0  0  0  0
    4.5048   -3.1238   -2.2219 H   0  0  0  0  0  0  0  0  0  0  0  0
    5.6215   -2.1324   -4.9125 H   0  0  0  0  0  0  0  0  0  0  0  0
    7.3844   -5.1967   -4.5524 H   0  0  0  0  0  0  0  0  0  0  0  0
    4.8475   -5.2698   -2.8270 H   0  0  0  0  0  0  0  0  0  0  0  0
    3.6500   -4.0638   -4.5956 H   0  0  0  0  0  0  0  0  0  0  0  0
    5.8230   -3.9124   -6.3242 H   0  0  0  0  0  0  0  0  0  0  0  0
    4.9744   -6.3475   -5.3840 H   0  0  0  0  0  0  0  0  0  0  0  0
    7.3394   -3.4286   -1.3403 H   0  0  0  0  0  0  0  0  0  0  0  0
    9.7997   -6.7023    1.3103 H   0  0  0  0  0  0  0  0  0  0  0  0
   10.3095   -8.3277    0.9799 H   0  0  0  0  0  0  0  0  0  0  0  0
    8.9813   -9.3910   -3.1097 H   0  0  0  0  0  0  0  0  0  0  0  0
  1  2  2  0  0  0  0
  1  3  1  0  0  0  0
  1  4  1  0  0  0  0
  1  5  1  0  0  0  0
  3 28  1  0  0  0  0
  4 29  1  0  0  0  0
  6  8  1  0  0  0  0
  6  9  1  0  0  0  0
  6  7  2  1  0  0  0
  6  5  1  0  0  0  0
  8 30  1  0  0  0  0
  9 10  1  0  0  0  0
 10 11  1  0  0  0  0
 10 31  1  0  0  0  0
 10 32  1  0  0  0  0
 11 12  1  0  0  0  0
 11 15  1  0  0  0  0
 11 33  1  6  0  0  0
 12 13  1  0  0  0  0
 13 14  1  0  0  0  0
 13 18  1  0  0  0  0
 13 34  1  6  0  0  0
 14 15  1  0  0  0  0
 14 17  1  0  0  0  0
 14 35  1  1  0  0  0
 15 16  1  0  0  0  0
 15 36  1  1  0  0  0
 16 37  1  0  0  0  0
 17 38  1  0  0  0  0
 18 19  1  0  0  0  0
 18 27  1  0  0  0  0
 19 20  2  0  0  0  0
 19 39  1  0  0  0  0
 20 21  1  0  0  0  0
 21 22  1  0  0  0  0
 21 27  2  0  0  0  0
 22 23  1  0  0  0  0
 22 24  2  0  0  0  0
 23 40  1  0  0  0  0
 23 41  1  0  0  0  0
 24 25  1  0  0  0  0
 25 26  2  0  0  0  0
 25 42  1  0  0  0  0
 26 27  1  0  0  0  0
M  END
$$$$
