data/HSP90/cocry_dataset/1uy6_PU3_LIG.pdb
 OpenBabel03092320563D

 52 54  0  0  0  0  0  0  0  0999 V2000
    1.4381    4.4376    0.5680 C   0  0  0  0  0  0  0  0  0  0  0  0
    2.4025    3.5542    0.0096 O   0  0  0  0  0  0  0  0  0  0  0  0
    2.9446    2.5968    0.8290 C   0  0  0  0  0  0  0  0  0  0  0  0
    2.7597    2.6051    2.2186 C   0  0  0  0  0  0  0  0  0  0  0  0
    3.2270    1.5581    3.0212 C   0  0  0  0  0  0  0  0  0  0  0  0
    3.9420    0.5123    2.4241 C   0  0  0  0  0  0  0  0  0  0  0  0
    4.1795    0.5013    1.0452 C   0  0  0  0  0  0  0  0  0  0  0  0
    3.6872    1.5534    0.2389 C   0  0  0  0  0  0  0  0  0  0  0  0
    3.9256    1.4100   -1.1102 O   0  0  0  0  0  0  0  0  0  0  0  0
    4.0906    2.5978   -1.8726 C   0  0  0  0  0  0  0  0  0  0  0  0
    4.8704   -0.4944    0.3940 O   0  0  0  0  0  0  0  0  0  0  0  0
    5.3532   -1.5812    1.1729 C   0  0  0  0  0  0  0  0  0  0  0  0
    2.9138    1.5211    4.5000 C   0  0  0  0  0  0  0  0  0  0  0  0
    1.6421    0.7854    4.8123 C   0  0  0  0  0  0  0  0  0  0  0  0
    1.5820   -0.5202    5.0280 N   0  0  0  0  0  0  0  0  0  0  0  0
    0.2719   -0.7905    5.3503 C   0  0  0  0  0  0  0  0  0  0  0  0
   -0.3943   -1.9702    5.7204 C   0  0  0  0  0  0  0  0  0  0  0  0
    0.2368   -3.2058    5.8229 N   0  0  0  0  0  0  0  0  0  0  0  0
   -1.7176   -1.9145    5.9887 N   0  0  0  0  0  0  0  0  0  0  0  0
   -2.3363   -0.7212    5.8997 C   0  0  0  0  0  0  0  0  0  0  0  0
   -1.8079    0.4623    5.5403 N   0  0  0  0  0  0  0  0  0  0  0  0
   -0.4936    0.3641    5.2921 C   0  0  0  0  0  0  0  0  0  0  0  0
    0.3871    1.3674    4.9583 N   0  0  0  0  0  0  0  0  0  0  0  0
    0.0430    2.7686    4.7728 C   0  0  0  0  0  0  0  0  0  0  0  0
   -1.0047    3.3244    5.7430 C   0  0  0  0  0  0  0  0  0  0  0  0
   -1.2212    4.8265    5.5724 C   0  0  0  0  0  0  0  0  0  0  0  0
   -2.2858    5.3255    6.5398 C   0  0  0  0  0  0  0  0  0  0  0  0
    0.9644    4.9833   -0.2527 H   0  0  0  0  0  0  0  0  0  0  0  0
    1.9250    5.1690    1.2214 H   0  0  0  0  0  0  0  0  0  0  0  0
    0.6487    3.8960    1.1010 H   0  0  0  0  0  0  0  0  0  0  0  0
    2.2329    3.4202    2.7014 H   0  0  0  0  0  0  0  0  0  0  0  0
    4.2928   -0.2935    3.0619 H   0  0  0  0  0  0  0  0  0  0  0  0
    4.6603    2.3395   -2.7712 H   0  0  0  0  0  0  0  0  0  0  0  0
    4.6576    3.3648   -1.3342 H   0  0  0  0  0  0  0  0  0  0  0  0
    3.1209    2.9760   -2.2098 H   0  0  0  0  0  0  0  0  0  0  0  0
    5.7741   -2.3246    0.4889 H   0  0  0  0  0  0  0  0  0  0  0  0
    4.5468   -2.0707    1.7284 H   0  0  0  0  0  0  0  0  0  0  0  0
    6.1536   -1.2519    1.8436 H   0  0  0  0  0  0  0  0  0  0  0  0
    2.9062    2.5369    4.9090 H   0  0  0  0  0  0  0  0  0  0  0  0
    3.7376    1.0186    5.0234 H   0  0  0  0  0  0  0  0  0  0  0  0
    1.0867   -3.2657    5.2752 H   0  0  0  0  0  0  0  0  0  0  0  0
   -0.4228   -3.9681    5.7519 H   0  0  0  0  0  0  0  0  0  0  0  0
   -3.3902   -0.7144    6.1548 H   0  0  0  0  0  0  0  0  0  0  0  0
   -0.2947    2.8720    3.7349 H   0  0  0  0  0  0  0  0  0  0  0  0
    0.9568    3.3568    4.8874 H   0  0  0  0  0  0  0  0  0  0  0  0
   -0.7038    3.1078    6.7759 H   0  0  0  0  0  0  0  0  0  0  0  0
   -1.9702    2.8370    5.5773 H   0  0  0  0  0  0  0  0  0  0  0  0
   -1.5388    5.0424    4.5453 H   0  0  0  0  0  0  0  0  0  0  0  0
   -0.2853    5.3682    5.7477 H   0  0  0  0  0  0  0  0  0  0  0  0
   -3.2355    4.8032    6.3813 H   0  0  0  0  0  0  0  0  0  0  0  0
   -2.4600    6.3961    6.4005 H   0  0  0  0  0  0  0  0  0  0  0  0
   -1.9769    5.1611    7.5775 H   0  0  0  0  0  0  0  0  0  0  0  0
  1  2  1  0  0  0  0
  1 28  1  0  0  0  0
  1 29  1  0  0  0  0
  1 30  1  0  0  0  0
  2  3  1  0  0  0  0
  3  4  1  0  0  0  0
  3  8  2  0  0  0  0
  4  5  2  0  0  0  0
  4 31  1  0  0  0  0
  5  6  1  0  0  0  0
  5 13  1  0  0  0  0
  6  7  2  0  0  0  0
  6 32  1  0  0  0  0
  7  8  1  0  0  0  0
  7 11  1  0  0  0  0
  8  9  1  0  0  0  0
  9 10  1  0  0  0  0
 10 33  1  0  0  0  0
 10 34  1  0  0  0  0
 10 35  1  0  0  0  0
 11 12  1  0  0  0  0
 12 36  1  0  0  0  0
 12 37  1  0  0  0  0
 12 38  1  0  0  0  0
 13 14  1  0  0  0  0
 13 39  1  0  0  0  0
 13 40  1  0  0  0  0
 14 15  2  0  0  0  0
 14 23  1  0  0  0  0
 15 16  1  0  0  0  0
 16 17  1  0  0  0  0
 16 22  2  0  0  0  0
 17 18  1  0  0  0  0
 17 19  2  0  0  0  0
 18 41  1  0  0  0  0
 18 42  1  0  0  0  0
 19 20  1  0  0  0  0
 20 21  2  0  0  0  0
 20 43  1  0  0  0  0
 21 22  1  0  0  0  0
 22 23  1  0  0  0  0
 23 24  1  0  0  0  0
 24 25  1  0  0  0  0
 24 44  1  0  0  0  0
 24 45  1  0  0  0  0
 25 26  1  0  0  0  0
 25 46  1  0  0  0  0
 25 47  1  0  0  0  0
 26 27  1  0  0  0  0
 26 48  1  0  0  0  0
 26 49  1  0  0  0  0
 27 50  1  0  0  0  0
 27 51  1  0  0  0  0
 27 52  1  0  0  0  0
M  END
$$$$
