data/HSP90/cocry_dataset/1uy9_PU6_LIG.pdb
 OpenBabel03092320563D

 43 46  0  0  0  0  0  0  0  0999 V2000
    5.7103   -2.1886    1.1796 C   0  0  0  0  0  0  0  0  0  0  0  0
    4.6961   -1.3450    0.4226 C   0  0  0  0  0  0  0  0  0  0  0  0
    5.3383   -0.6663   -0.7885 C   0  0  0  0  0  0  0  0  0  0  0  0
    4.3310    0.1809   -1.5730 C   0  0  0  0  0  0  0  0  0  0  0  0
    4.8860    0.7469   -2.7905 N   0  0  0  0  0  0  0  0  0  0  0  0
    5.3255   -0.0258   -3.8426 C   0  0  0  0  0  0  0  0  0  0  0  0
    5.3761   -1.3696   -3.9103 N   0  0  0  0  0  0  0  0  0  0  0  0
    5.9191   -1.7811   -5.0688 C   0  0  0  0  0  0  0  0  0  0  0  0
    6.3369   -1.0293   -6.1027 N   0  0  0  0  0  0  0  0  0  0  0  0
    6.2467    0.3228   -5.9954 C   0  0  0  0  0  0  0  0  0  0  0  0
    5.7259    0.8724   -4.8103 C   0  0  0  0  0  0  0  0  0  0  0  0
    5.5202    2.1666   -4.3899 N   0  0  0  0  0  0  0  0  0  0  0  0
    5.0352    2.0769   -3.1574 C   0  0  0  0  0  0  0  0  0  0  0  0
    4.6880    3.2830   -2.3107 C   0  0  0  0  0  0  0  0  0  0  0  0
    3.2544    3.7092   -2.5397 C   0  0  0  0  0  0  0  0  0  0  0  0
    2.2564    3.2073   -1.6970 C   0  0  0  0  0  0  0  0  0  0  0  0
    0.9835    3.1817   -2.2014 C   0  0  0  0  0  0  0  0  0  0  0  0
   -0.0217    2.3947   -1.7217 O   0  0  0  0  0  0  0  0  0  0  0  0
   -0.7505    2.2336   -2.9551 C   0  0  0  0  0  0  0  0  0  0  0  0
   -0.5848    3.3750   -3.8236 O   0  0  0  0  0  0  0  0  0  0  0  0
    0.6569    3.7641   -3.4083 C   0  0  0  0  0  0  0  0  0  0  0  0
    1.5687    4.4803   -4.1449 C   0  0  0  0  0  0  0  0  0  0  0  0
    2.8964    4.4282   -3.7157 C   0  0  0  0  0  0  0  0  0  0  0  0
    6.6641    1.0878   -7.0782 N   0  0  0  0  0  0  0  0  0  0  0  0
    5.2354   -2.7136    2.0149 H   0  0  0  0  0  0  0  0  0  0  0  0
    6.5179   -1.5693    1.5827 H   0  0  0  0  0  0  0  0  0  0  0  0
    6.1632   -2.9479    0.5246 H   0  0  0  0  0  0  0  0  0  0  0  0
    4.2803   -0.5906    1.0940 H   0  0  0  0  0  0  0  0  0  0  0  0
    3.8708   -1.9911    0.0988 H   0  0  0  0  0  0  0  0  0  0  0  0
    5.7624   -1.4513   -1.4250 H   0  0  0  0  0  0  0  0  0  0  0  0
    6.1753   -0.0371   -0.4661 H   0  0  0  0  0  0  0  0  0  0  0  0
    3.9662    0.9898   -0.9402 H   0  0  0  0  0  0  0  0  0  0  0  0
    3.4631   -0.4199   -1.8727 H   0  0  0  0  0  0  0  0  0  0  0  0
    6.0457   -2.8543   -5.1797 H   0  0  0  0  0  0  0  0  0  0  0  0
    5.3580    4.1093   -2.5781 H   0  0  0  0  0  0  0  0  0  0  0  0
    4.8680    3.0774   -1.2502 H   0  0  0  0  0  0  0  0  0  0  0  0
    2.4842    2.6934   -0.7724 H   0  0  0  0  0  0  0  0  0  0  0  0
   -1.8104    2.0674   -2.7441 H   0  0  0  0  0  0  0  0  0  0  0  0
   -0.3537    1.3403   -3.4655 H   0  0  0  0  0  0  0  0  0  0  0  0
    1.2994    4.9369   -5.0902 H   0  0  0  0  0  0  0  0  0  0  0  0
    3.6740    4.8458   -4.3526 H   0  0  0  0  0  0  0  0  0  0  0  0
    6.6538    0.5484   -7.9328 H   0  0  0  0  0  0  0  0  0  0  0  0
    6.2332    2.0052   -7.0973 H   0  0  0  0  0  0  0  0  0  0  0  0
  1  2  1  0  0  0  0
  1 25  1  0  0  0  0
  1 26  1  0  0  0  0
  1 27  1  0  0  0  0
  2  3  1  0  0  0  0
  2 28  1  0  0  0  0
  2 29  1  0  0  0  0
  3  4  1  0  0  0  0
  3 30  1  0  0  0  0
  3 31  1  0  0  0  0
  4  5  1  0  0  0  0
  4 32  1  0  0  0  0
  4 33  1  0  0  0  0
  5  6  1  0  0  0  0
  5 13  1  0  0  0  0
  6  7  1  0  0  0  0
  6 11  2  0  0  0  0
  7  8  2  0  0  0  0
  8  9  1  0  0  0  0
  8 34  1  0  0  0  0
  9 10  2  0  0  0  0
 10 11  1  0  0  0  0
 10 24  1  0  0  0  0
 11 12  1  0  0  0  0
 12 13  2  0  0  0  0
 13 14  1  0  0  0  0
 14 15  1  0  0  0  0
 14 35  1  0  0  0  0
 14 36  1  0  0  0  0
 15 16  1  0  0  0  0
 15 23  2  0  0  0  0
 16 17  2  0  0  0  0
 16 37  1  0  0  0  0
 17 18  1  0  0  0  0
 17 21  1  0  0  0  0
 18 19  1  0  0  0  0
 19 20  1  0  0  0  0
 19 38  1  0  0  0  0
 19 39  1  0  0  0  0
 20 21  1  0  0  0  0
 21 22  2  0  0  0  0
 22 23  1  0  0  0  0
 22 40  1  0  0  0  0
 23 41  1  0  0  0  0
 24 42  1  0  0  0  0
 24 43  1  0  0  0  0
M  END
$$$$
