data/HSP90/cocry_dataset/1uyc_PU7_LIG.pdb
 OpenBabel03092320563D

 48 50  0  0  0  0  0  0  0  0999 V2000
    4.3207    5.3823    1.4148 C   0  0  0  0  0  0  0  0  0  0  0  0
    4.6167    4.1101    0.8518 O   0  0  0  0  0  0  0  0  0  0  0  0
    5.4469    4.0888   -0.2379 C   0  0  0  0  0  0  0  0  0  0  0  0
    6.2834    5.1462   -0.6110 C   0  0  0  0  0  0  0  0  0  0  0  0
    7.1323    5.0340   -1.7192 C   0  0  0  0  0  0  0  0  0  0  0  0
    7.1699    3.8553   -2.4570 C   0  0  0  0  0  0  0  0  0  0  0  0
    7.9642    3.6092   -3.5417 O   0  0  0  0  0  0  0  0  0  0  0  0
    8.7894    4.6764   -3.9902 C   0  0  0  0  0  0  0  0  0  0  0  0
    6.3384    2.7981   -2.0849 C   0  0  0  0  0  0  0  0  0  0  0  0
    5.4585    2.9027   -0.9897 C   0  0  0  0  0  0  0  0  0  0  0  0
    4.5723    1.7245   -0.6466 C   0  0  0  0  0  0  0  0  0  0  0  0
    3.6149    1.3419   -1.7422 C   0  0  0  0  0  0  0  0  0  0  0  0
    3.8748    0.4315   -2.6718 N   0  0  0  0  0  0  0  0  0  0  0  0
    2.6993    0.2665   -3.3678 C   0  0  0  0  0  0  0  0  0  0  0  0
    2.3387   -0.5872   -4.4296 C   0  0  0  0  0  0  0  0  0  0  0  0
    3.2194   -1.4913   -5.0171 N   0  0  0  0  0  0  0  0  0  0  0  0
    1.0731   -0.5257   -4.9002 N   0  0  0  0  0  0  0  0  0  0  0  0
    0.2126    0.3381   -4.3157 C   0  0  0  0  0  0  0  0  0  0  0  0
    0.4450    1.2018   -3.3090 N   0  0  0  0  0  0  0  0  0  0  0  0
    1.7190    1.1113   -2.8805 C   0  0  0  0  0  0  0  0  0  0  0  0
    2.3273    1.8304   -1.8836 N   0  0  0  0  0  0  0  0  0  0  0  0
    1.6493    2.8220   -1.0732 C   0  0  0  0  0  0  0  0  0  0  0  0
    1.7589    4.2615   -1.5870 C   0  0  0  0  0  0  0  0  0  0  0  0
    1.0296    4.5071   -2.9095 C   0  0  0  0  0  0  0  0  0  0  0  0
    1.0922    5.9719   -3.3150 C   0  0  0  0  0  0  0  0  0  0  0  0
    3.6229    5.2244    2.2426 H   0  0  0  0  0  0  0  0  0  0  0  0
    3.8286    6.0233    0.6763 H   0  0  0  0  0  0  0  0  0  0  0  0
    5.2128    5.8630    1.8286 H   0  0  0  0  0  0  0  0  0  0  0  0
    6.3154    6.0752   -0.0515 H   0  0  0  0  0  0  0  0  0  0  0  0
    7.7586    5.8838   -1.9690 H   0  0  0  0  0  0  0  0  0  0  0  0
    9.3448    4.3255   -4.8652 H   0  0  0  0  0  0  0  0  0  0  0  0
    9.5193    4.9603   -3.2248 H   0  0  0  0  0  0  0  0  0  0  0  0
    8.1866    5.5364   -4.3004 H   0  0  0  0  0  0  0  0  0  0  0  0
    6.3732    1.8740   -2.6620 H   0  0  0  0  0  0  0  0  0  0  0  0
    4.0255    1.8786    0.2883 H   0  0  0  0  0  0  0  0  0  0  0  0
    5.2260    0.8646   -0.4436 H   0  0  0  0  0  0  0  0  0  0  0  0
    4.1881   -1.2455   -4.8727 H   0  0  0  0  0  0  0  0  0  0  0  0
    2.9245   -1.7419   -5.9526 H   0  0  0  0  0  0  0  0  0  0  0  0
   -0.7965    0.3322   -4.7116 H   0  0  0  0  0  0  0  0  0  0  0  0
    2.0592    2.7640   -0.0600 H   0  0  0  0  0  0  0  0  0  0  0  0
    0.5965    2.5267   -0.9904 H   0  0  0  0  0  0  0  0  0  0  0  0
    2.8120    4.5439   -1.6943 H   0  0  0  0  0  0  0  0  0  0  0  0
    1.3292    4.9220   -0.8232 H   0  0  0  0  0  0  0  0  0  0  0  0
   -0.0197    4.2060   -2.8209 H   0  0  0  0  0  0  0  0  0  0  0  0
    1.4788    3.9084   -3.7086 H   0  0  0  0  0  0  0  0  0  0  0  0
    0.6384    6.6138   -2.5526 H   0  0  0  0  0  0  0  0  0  0  0  0
    0.5511    6.1298   -4.2548 H   0  0  0  0  0  0  0  0  0  0  0  0
    2.1281    6.2946   -3.4640 H   0  0  0  0  0  0  0  0  0  0  0  0
  1  2  1  0  0  0  0
  1 26  1  0  0  0  0
  1 27  1  0  0  0  0
  1 28  1  0  0  0  0
  2  3  1  0  0  0  0
  3  4  1  0  0  0  0
  3 10  2  0  0  0  0
  4  5  2  0  0  0  0
  4 29  1  0  0  0  0
  5  6  1  0  0  0  0
  5 30  1  0  0  0  0
  6  7  1  0  0  0  0
  6  9  2  0  0  0  0
  7  8  1  0  0  0  0
  8 31  1  0  0  0  0
  8 32  1  0  0  0  0
  8 33  1  0  0  0  0
  9 10  1  0  0  0  0
  9 34  1  0  0  0  0
 10 11  1  0  0  0  0
 11 12  1  0  0  0  0
 11 35  1  0  0  0  0
 11 36  1  0  0  0  0
 12 13  2  0  0  0  0
 12 21  1  0  0  0  0
 13 14  1  0  0  0  0
 14 15  1  0  0  0  0
 14 20  2  0  0  0  0
 15 16  1  0  0  0  0
 15 17  2  0  0  0  0
 16 37  1  0  0  0  0
 16 38  1  0  0  0  0
 17 18  1  0  0  0  0
 18 19  2  0  0  0  0
 18 39  1  0  0  0  0
 19 20  1  0  0  0  0
 20 21  1  0  0  0  0
 21 22  1  0  0  0  0
 22 23  1  0  0  0  0
 22 40  1  0  0  0  0
 22 41  1  0  0  0  0
 23 24  1  0  0  0  0
 23 42  1  0  0  0  0
 23 43  1  0  0  0  0
 24 25  1  0  0  0  0
 24 44  1  0  0  0  0
 24 45  1  0  0  0  0
 25 46  1  0  0  0  0
 25 47  1  0  0  0  0
 25 48  1  0  0  0  0
M  END
$$$$
