data/HSP90/cocry_dataset/1uyd_PU8_LIG.pdb
 OpenBabel03092320563D

 50 52  0  0  0  0  0  0  0  0999 V2000
    1.0801    4.1747    0.4567 C   0  0  0  0  0  0  0  0  0  0  0  0
    2.3804    3.7167    0.0546 O   0  0  0  0  0  0  0  0  0  0  0  0
    2.8477    2.6606    0.8055 C   0  0  0  0  0  0  0  0  0  0  0  0
    3.0666    2.8268    2.1946 C   0  0  0  0  0  0  0  0  0  0  0  0
    3.3447    1.7257    3.0146 C   0  0  0  0  0  0  0  0  0  0  0  0
    3.6649    0.5123    2.3882 C   0  0  0  0  0  0  0  0  0  0  0  0
    3.6415    0.3777    0.9947 C   0  0  0  0  0  0  0  0  0  0  0  0
    3.1740    1.4337    0.1839 C   0  0  0  0  0  0  0  0  0  0  0  0
    3.0740    1.1250   -1.1456 O   0  0  0  0  0  0  0  0  0  0  0  0
    2.5834    2.0693   -2.0809 C   0  0  0  0  0  0  0  0  0  0  0  0
    4.0154   -0.8778    0.5748 O   0  0  0  0  0  0  0  0  0  0  0  0
    4.7867   -0.9433   -0.6213 C   0  0  0  0  0  0  0  0  0  0  0  0
    3.2406    1.7827    4.5299 C   0  0  0  0  0  0  0  0  0  0  0  0
    2.2517    0.7679    5.0405 C   0  0  0  0  0  0  0  0  0  0  0  0
    0.9660    0.7465    4.7109 N   0  0  0  0  0  0  0  0  0  0  0  0
    0.4853   -0.4564    5.1757 C   0  0  0  0  0  0  0  0  0  0  0  0
   -0.7528   -1.1088    5.0251 C   0  0  0  0  0  0  0  0  0  0  0  0
   -1.8077   -0.5898    4.2883 N   0  0  0  0  0  0  0  0  0  0  0  0
   -0.9180   -2.3191    5.6059 N   0  0  0  0  0  0  0  0  0  0  0  0
    0.1239   -2.8530    6.2793 C   0  0  0  0  0  0  0  0  0  0  0  0
    1.3514   -2.3300    6.4789 N   0  0  0  0  0  0  0  0  0  0  0  0
    1.4606   -1.1267    5.8922 C   0  0  0  0  0  0  0  0  0  0  0  0
    2.5757   -0.3286    5.8172 N   0  0  0  0  0  0  0  0  0  0  0  0
    3.8954   -0.7286    6.2879 C   0  0  0  0  0  0  0  0  0  0  0  0
    4.2101   -0.2311    7.6712 C   0  0  0  0  0  0  0  0  0  0  0  0
    5.4090    0.1722    8.1232 C   0  0  0  0  0  0  0  0  0  0  0  0
    6.6967    0.2288    7.3640 C   0  0  0  0  0  0  0  0  0  0  0  0
    3.1446    4.4304    2.8786 Cl  0  0  0  0  0  0  0  0  0  0  0  0
    0.9704    5.2043    0.1011 H   0  0  0  0  0  0  0  0  0  0  0  0
    0.9075    4.1839    1.5366 H   0  0  0  0  0  0  0  0  0  0  0  0
    0.3012    3.5629   -0.0077 H   0  0  0  0  0  0  0  0  0  0  0  0
    3.9326   -0.3597    2.9818 H   0  0  0  0  0  0  0  0  0  0  0  0
    2.6431    1.6076   -3.0738 H   0  0  0  0  0  0  0  0  0  0  0  0
    3.2022    2.9700   -2.1084 H   0  0  0  0  0  0  0  0  0  0  0  0
    1.5287    2.2908   -1.8942 H   0  0  0  0  0  0  0  0  0  0  0  0
    5.3478   -1.8840   -0.6003 H   0  0  0  0  0  0  0  0  0  0  0  0
    5.5147   -0.1278   -0.6975 H   0  0  0  0  0  0  0  0  0  0  0  0
    4.1370   -0.9839   -1.4998 H   0  0  0  0  0  0  0  0  0  0  0  0
    2.8775    2.7564    4.8747 H   0  0  0  0  0  0  0  0  0  0  0  0
    4.2385    1.6628    4.9605 H   0  0  0  0  0  0  0  0  0  0  0  0
   -1.7659    0.4161    4.1657 H   0  0  0  0  0  0  0  0  0  0  0  0
   -2.6945   -1.0110    4.5294 H   0  0  0  0  0  0  0  0  0  0  0  0
   -0.0468   -3.8358    6.7093 H   0  0  0  0  0  0  0  0  0  0  0  0
    4.6197   -0.3874    5.5456 H   0  0  0  0  0  0  0  0  0  0  0  0
    3.9270   -1.8231    6.2822 H   0  0  0  0  0  0  0  0  0  0  0  0
    3.3827   -0.2491    8.3821 H   0  0  0  0  0  0  0  0  0  0  0  0
    5.4856    0.4694    9.1715 H   0  0  0  0  0  0  0  0  0  0  0  0
    6.6053   -0.1197    6.3318 H   0  0  0  0  0  0  0  0  0  0  0  0
    7.4456   -0.4005    7.8564 H   0  0  0  0  0  0  0  0  0  0  0  0
    7.0707    1.2568    7.3426 H   0  0  0  0  0  0  0  0  0  0  0  0
  1  2  1  0  0  0  0
  1 29  1  0  0  0  0
  1 30  1  0  0  0  0
  1 31  1  0  0  0  0
  2  3  1  0  0  0  0
  3  4  1  0  0  0  0
  3  8  2  0  0  0  0
  4  5  2  0  0  0  0
  4 28  1  0  0  0  0
  5  6  1  0  0  0  0
  5 13  1  0  0  0  0
  6  7  2  0  0  0  0
  6 32  1  0  0  0  0
  7  8  1  0  0  0  0
  7 11  1  0  0  0  0
  8  9  1  0  0  0  0
  9 10  1  0  0  0  0
 10 33  1  0  0  0  0
 10 34  1  0  0  0  0
 10 35  1  0  0  0  0
 11 12  1  0  0  0  0
 12 36  1  0  0  0  0
 12 37  1  0  0  0  0
 12 38  1  0  0  0  0
 13 14  1  0  0  0  0
 13 39  1  0  0  0  0
 13 40  1  0  0  0  0
 14 15  2  0  0  0  0
 14 23  1  0  0  0  0
 15 16  1  0  0  0  0
 16 17  1  0  0  0  0
 16 22  2  0  0  0  0
 17 18  1  0  0  0  0
 17 19  2  0  0  0  0
 18 41  1  0  0  0  0
 18 42  1  0  0  0  0
 19 20  1  0  0  0  0
 20 21  2  0  0  0  0
 20 43  1  0  0  0  0
 21 22  1  0  0  0  0
 22 23  1  0  0  0  0
 23 24  1  0  0  0  0
 24 25  1  0  0  0  0
 24 44  1  0  0  0  0
 24 45  1  0  0  0  0
 25 26  2  0  0  0  0
 25 46  1  0  0  0  0
 26 27  1  0  0  0  0
 26 47  1  0  0  0  0
 27 48  1  0  0  0  0
 27 49  1  0  0  0  0
 27 50  1  0  0  0  0
M  END
$$$$
