data/HSP90/cocry_dataset/1uye_PU9_LIG.pdb
 OpenBabel03092320563D

 51 53  0  0  0  0  0  0  0  0999 V2000
   -0.7201   -0.9196    2.6570 Cl  0  0  0  0  0  0  0  0  0  0  0  0
   -0.0071   -0.2740    1.2064 C   0  0  0  0  0  0  0  0  0  0  0  0
    0.4558    1.0650    1.1697 C   0  0  0  0  0  0  0  0  0  0  0  0
    0.1438    1.9668    2.1618 O   0  0  0  0  0  0  0  0  0  0  0  0
   -1.2444    2.0902    2.4818 C   0  0  0  0  0  0  0  0  0  0  0  0
    1.3541    1.4716    0.1513 C   0  0  0  0  0  0  0  0  0  0  0  0
    1.8943    2.7201   -0.0023 O   0  0  0  0  0  0  0  0  0  0  0  0
    1.5772    3.7818    0.8791 C   0  0  0  0  0  0  0  0  0  0  0  0
    1.7567    0.5251   -0.8133 C   0  0  0  0  0  0  0  0  0  0  0  0
    2.6785    0.6653   -1.8226 O   0  0  0  0  0  0  0  0  0  0  0  0
    3.4740    1.8397   -1.9002 C   0  0  0  0  0  0  0  0  0  0  0  0
    1.1771   -0.7536   -0.8207 C   0  0  0  0  0  0  0  0  0  0  0  0
    0.2478   -1.1571    0.1448 C   0  0  0  0  0  0  0  0  0  0  0  0
   -0.4213   -2.5144    0.0096 C   0  0  0  0  0  0  0  0  0  0  0  0
   -1.9223   -2.4233   -0.1391 C   0  0  0  0  0  0  0  0  0  0  0  0
   -2.7682   -2.4849    0.8786 N   0  0  0  0  0  0  0  0  0  0  0  0
   -3.9929   -2.1220    0.3762 C   0  0  0  0  0  0  0  0  0  0  0  0
   -5.2277   -1.8523    0.9857 C   0  0  0  0  0  0  0  0  0  0  0  0
   -5.4171   -1.8932    2.3597 N   0  0  0  0  0  0  0  0  0  0  0  0
   -6.2737   -1.5036    0.2028 N   0  0  0  0  0  0  0  0  0  0  0  0
   -6.0676   -1.4047   -1.1289 C   0  0  0  0  0  0  0  0  0  0  0  0
   -4.9309   -1.6219   -1.8202 N   0  0  0  0  0  0  0  0  0  0  0  0
   -3.9284   -1.9715   -1.0002 C   0  0  0  0  0  0  0  0  0  0  0  0
   -2.6114   -2.1963   -1.3212 N   0  0  0  0  0  0  0  0  0  0  0  0
   -2.0587   -1.9744   -2.6400 C   0  0  0  0  0  0  0  0  0  0  0  0
   -1.5294   -3.2357   -3.3315 C   0  0  0  0  0  0  0  0  0  0  0  0
   -0.8731   -2.9007   -4.6747 C   0  0  0  0  0  0  0  0  0  0  0  0
    0.2406   -1.8912   -4.4492 C   0  0  0  0  0  0  0  0  0  0  0  0
    1.1960   -1.0252   -4.2558 C   0  0  0  0  0  0  0  0  0  0  0  0
   -1.4470    3.1438    2.6973 H   0  0  0  0  0  0  0  0  0  0  0  0
   -1.4617    1.5398    3.4017 H   0  0  0  0  0  0  0  0  0  0  0  0
   -1.9106    1.7765    1.6703 H   0  0  0  0  0  0  0  0  0  0  0  0
    2.1686    4.6487    0.5668 H   0  0  0  0  0  0  0  0  0  0  0  0
    1.8737    3.5548    1.9065 H   0  0  0  0  0  0  0  0  0  0  0  0
    0.5229    4.0610    0.7956 H   0  0  0  0  0  0  0  0  0  0  0  0
    4.2385    1.6723   -2.6663 H   0  0  0  0  0  0  0  0  0  0  0  0
    4.0033    2.0423   -0.9636 H   0  0  0  0  0  0  0  0  0  0  0  0
    2.8725    2.6922   -2.2307 H   0  0  0  0  0  0  0  0  0  0  0  0
    1.4862   -1.4555   -1.5940 H   0  0  0  0  0  0  0  0  0  0  0  0
   -0.1739   -3.1233    0.8877 H   0  0  0  0  0  0  0  0  0  0  0  0
    0.0061   -3.0623   -0.8387 H   0  0  0  0  0  0  0  0  0  0  0  0
   -4.7159   -2.4361    2.8512 H   0  0  0  0  0  0  0  0  0  0  0  0
   -6.3866   -2.0096    2.6186 H   0  0  0  0  0  0  0  0  0  0  0  0
   -6.9296   -1.0979   -1.7161 H   0  0  0  0  0  0  0  0  0  0  0  0
   -1.2872   -1.2107   -2.5129 H   0  0  0  0  0  0  0  0  0  0  0  0
   -2.8367   -1.5257   -3.2693 H   0  0  0  0  0  0  0  0  0  0  0  0
   -2.3481   -3.9474   -3.4911 H   0  0  0  0  0  0  0  0  0  0  0  0
   -0.7992   -3.7480   -2.6963 H   0  0  0  0  0  0  0  0  0  0  0  0
   -1.6104   -2.4756   -5.3645 H   0  0  0  0  0  0  0  0  0  0  0  0
   -0.4606   -3.8056   -5.1328 H   0  0  0  0  0  0  0  0  0  0  0  0
    1.9784   -0.3142   -4.1186 H   0  0  0  0  0  0  0  0  0  0  0  0
  1  2  1  0  0  0  0
  2  3  1  0  0  0  0
  2 13  2  0  0  0  0
  3  4  1  0  0  0  0
  3  6  2  0  0  0  0
  4  5  1  0  0  0  0
  5 30  1  0  0  0  0
  5 31  1  0  0  0  0
  5 32  1  0  0  0  0
  6  7  1  0  0  0  0
  6  9  1  0  0  0  0
  7  8  1  0  0  0  0
  8 33  1  0  0  0  0
  8 34  1  0  0  0  0
  8 35  1  0  0  0  0
  9 10  1  0  0  0  0
  9 12  2  0  0  0  0
 10 11  1  0  0  0  0
 11 36  1  0  0  0  0
 11 37  1  0  0  0  0
 11 38  1  0  0  0  0
 12 13  1  0  0  0  0
 12 39  1  0  0  0  0
 13 14  1  0  0  0  0
 14 15  1  0  0  0  0
 14 40  1  0  0  0  0
 14 41  1  0  0  0  0
 15 16  2  0  0  0  0
 15 24  1  0  0  0  0
 16 17  1  0  0  0  0
 17 18  1  0  0  0  0
 17 23  2  0  0  0  0
 18 19  1  0  0  0  0
 18 20  2  0  0  0  0
 19 42  1  0  0  0  0
 19 43  1  0  0  0  0
 20 21  1  0  0  0  0
 21 22  2  0  0  0  0
 21 44  1  0  0  0  0
 22 23  1  0  0  0  0
 23 24  1  0  0  0  0
 24 25  1  0  0  0  0
 25 26  1  0  0  0  0
 25 45  1  0  0  0  0
 25 46  1  0  0  0  0
 26 27  1  0  0  0  0
 26 47  1  0  0  0  0
 26 48  1  0  0  0  0
 27 28  1  0  0  0  0
 27 49  1  0  0  0  0
 27 50  1  0  0  0  0
 28 29  3  0  0  0  0
 29 51  1  0  0  0  0
M  END
$$$$
